ZINC000001693738
 OpenBabel08101817233D

 41 40  0  0  0  0  0  0  0  0999 V2000
   -0.0187    1.5258    0.0104 C   0  0  0  0  0  0  0  0  0  0  0  0
    0.0021   -0.0041    0.0020 C   0  0  0  0  0  0  0  0  0  0  0  0
   -1.4333   -0.5336    0.0129 C   0  0  0  0  0  0  0  0  0  0  0  0
   -1.4126   -2.0635    0.0045 C   0  0  0  0  0  0  0  0  0  0  0  0
   -2.8479   -2.5931    0.0153 C   0  0  0  0  0  0  0  0  0  0  0  0
   -2.8272   -4.1229    0.0069 C   0  0  0  0  0  0  0  0  0  0  0  0
   -4.2626   -4.6525    0.0178 C   0  0  0  0  0  0  0  0  0  0  0  0
   -4.2418   -6.1823    0.0094 C   0  0  0  0  0  0  0  0  0  0  0  0
   -5.6772   -6.7119    0.0202 C   0  0  0  0  0  0  0  0  0  0  0  0
   -5.6565   -8.2417    0.0118 C   0  0  0  0  0  0  0  0  0  0  0  0
   -7.0918   -8.7713    0.0227 C   0  0  0  0  0  0  0  0  0  0  0  0
   -7.0711  -10.3012    0.0143 C   0  0  0  0  0  0  0  0  0  0  0  0
   -8.5065  -10.8307    0.0251 C   0  0  0  0  0  0  0  0  0  0  0  0
    1.0039    1.9031    0.0027 H   0  0  0  0  0  0  0  0  0  0  0  0
   -0.5459    1.8868   -0.8726 H   0  0  0  0  0  0  0  0  0  0  0  0
   -0.5289    1.8773    0.9072 H   0  0  0  0  0  0  0  0  0  0  0  0
    0.5123   -0.3556   -0.8948 H   0  0  0  0  0  0  0  0  0  0  0  0
    0.5293   -0.3651    0.8851 H   0  0  0  0  0  0  0  0  0  0  0  0
   -1.9435   -0.1821    0.9097 H   0  0  0  0  0  0  0  0  0  0  0  0
   -1.9605   -0.1726   -0.8702 H   0  0  0  0  0  0  0  0  0  0  0  0
   -0.9024   -2.4150   -0.8923 H   0  0  0  0  0  0  0  0  0  0  0  0
   -0.8854   -2.4246    0.8875 H   0  0  0  0  0  0  0  0  0  0  0  0
   -3.3581   -2.2415    0.9121 H   0  0  0  0  0  0  0  0  0  0  0  0
   -3.3751   -2.2320   -0.8677 H   0  0  0  0  0  0  0  0  0  0  0  0
   -2.3170   -4.4744   -0.8899 H   0  0  0  0  0  0  0  0  0  0  0  0
   -2.3000   -4.4840    0.8900 H   0  0  0  0  0  0  0  0  0  0  0  0
   -4.7728   -4.3010    0.9146 H   0  0  0  0  0  0  0  0  0  0  0  0
   -4.7898   -4.2914   -0.8653 H   0  0  0  0  0  0  0  0  0  0  0  0
   -3.7316   -6.5338   -0.8874 H   0  0  0  0  0  0  0  0  0  0  0  0
   -3.7146   -6.5434    0.8924 H   0  0  0  0  0  0  0  0  0  0  0  0
   -6.1874   -6.3604    0.9170 H   0  0  0  0  0  0  0  0  0  0  0  0
   -6.2044   -6.3508   -0.8628 H   0  0  0  0  0  0  0  0  0  0  0  0
   -5.1463   -8.5933   -0.8850 H   0  0  0  0  0  0  0  0  0  0  0  0
   -5.1293   -8.6028    0.8949 H   0  0  0  0  0  0  0  0  0  0  0  0
   -7.6020   -8.4198    0.9195 H   0  0  0  0  0  0  0  0  0  0  0  0
   -7.6190   -8.4102   -0.8604 H   0  0  0  0  0  0  0  0  0  0  0  0
   -6.5609  -10.6527   -0.8825 H   0  0  0  0  0  0  0  0  0  0  0  0
   -6.5439  -10.6622    0.8973 H   0  0  0  0  0  0  0  0  0  0  0  0
   -9.0167  -10.4792    0.9219 H   0  0  0  0  0  0  0  0  0  0  0  0
   -9.0337  -10.4697   -0.8579 H   0  0  0  0  0  0  0  0  0  0  0  0
   -8.4917  -11.9206    0.0191 H   0  0  0  0  0  0  0  0  0  0  0  0
  1  2  1  0  0  0  0
  1 14  1  0  0  0  0
  1 15  1  0  0  0  0
  1 16  1  0  0  0  0
  2  3  1  0  0  0  0
  2 17  1  0  0  0  0
  2 18  1  0  0  0  0
  3  4  1  0  0  0  0
  3 19  1  0  0  0  0
  3 20  1  0  0  0  0
  4  5  1  0  0  0  0
  4 21  1  0  0  0  0
  4 22  1  0  0  0  0
  5  6  1  0  0  0  0
  5 23  1  0  0  0  0
  5 24  1  0  0  0  0
  6  7  1  0  0  0  0
  6 25  1  0  0  0  0
  6 26  1  0  0  0  0
  7  8  1  0  0  0  0
  7 27  1  0  0  0  0
  7 28  1  0  0  0  0
  8  9  1  0  0  0  0
  8 29  1  0  0  0  0
  8 30  1  0  0  0  0
  9 10  1  0  0  0  0
  9 31  1  0  0  0  0
  9 32  1  0  0  0  0
 10 11  1  0  0  0  0
 10 33  1  0  0  0  0
 10 34  1  0  0  0  0
 11 12  1  0  0  0  0
 11 35  1  0  0  0  0
 11 36  1  0  0  0  0
 12 13  1  0  0  0  0
 12 37  1  0  0  0  0
 12 38  1  0  0  0  0
 13 39  1  0  0  0  0
 13 40  1  0  0  0  0
 13 41  1  0  0  0  0
M  END
$$$$
ZINC000001693893
 OpenBabel08101817233D

 42 41  0  0  0  0  0  0  0  0999 V2000
   -0.0157    1.3058    0.0092 C   0  0  0  0  0  0  0  0  0  0  0  0
    0.0021   -0.0041    0.0020 C   0  0  0  0  0  0  0  0  0  0  0  0
    1.3172   -0.7397   -0.0145 C   0  0  0  0  0  0  0  0  0  0  0  0
    1.3696   -1.7171    1.1615 C   0  0  0  0  0  0  0  0  0  0  0  0
    2.7049   -2.4640    1.1447 C   0  0  0  0  0  0  0  0  0  0  0  0
    2.7573   -3.4414    2.3206 C   0  0  0  0  0  0  0  0  0  0  0  0
    4.0925   -4.1883    2.3039 C   0  0  0  0  0  0  0  0  0  0  0  0
    4.1449   -5.1657    3.4798 C   0  0  0  0  0  0  0  0  0  0  0  0
    5.4801   -5.9125    3.4631 C   0  0  0  0  0  0  0  0  0  0  0  0
    5.5326   -6.8899    4.6390 C   0  0  0  0  0  0  0  0  0  0  0  0
    6.8678   -7.6368    4.6223 C   0  0  0  0  0  0  0  0  0  0  0  0
    6.9202   -8.6142    5.7982 C   0  0  0  0  0  0  0  0  0  0  0  0
    8.2554   -9.3611    5.7814 C   0  0  0  0  0  0  0  0  0  0  0  0
    8.3079  -10.3385    6.9574 C   0  0  0  0  0  0  0  0  0  0  0  0
    0.9122    1.8585    0.0033 H   0  0  0  0  0  0  0  0  0  0  0  0
   -0.9582    1.8330    0.0166 H   0  0  0  0  0  0  0  0  0  0  0  0
   -0.9258   -0.5567    0.0079 H   0  0  0  0  0  0  0  0  0  0  0  0
    1.4134   -1.2911   -0.9498 H   0  0  0  0  0  0  0  0  0  0  0  0
    2.1349   -0.0241    0.0711 H   0  0  0  0  0  0  0  0  0  0  0  0
    1.2735   -1.1657    2.0968 H   0  0  0  0  0  0  0  0  0  0  0  0
    0.5519   -2.4327    1.0758 H   0  0  0  0  0  0  0  0  0  0  0  0
    2.8010   -3.0154    0.2094 H   0  0  0  0  0  0  0  0  0  0  0  0
    3.5226   -1.7484    1.2303 H   0  0  0  0  0  0  0  0  0  0  0  0
    2.6611   -2.8900    3.2560 H   0  0  0  0  0  0  0  0  0  0  0  0
    1.9396   -4.1570    2.2350 H   0  0  0  0  0  0  0  0  0  0  0  0
    4.1887   -4.7397    1.3686 H   0  0  0  0  0  0  0  0  0  0  0  0
    4.9102   -3.4727    2.3895 H   0  0  0  0  0  0  0  0  0  0  0  0
    4.0488   -4.6143    4.4151 H   0  0  0  0  0  0  0  0  0  0  0  0
    3.3272   -5.8813    3.3942 H   0  0  0  0  0  0  0  0  0  0  0  0
    5.5763   -6.4640    2.5278 H   0  0  0  0  0  0  0  0  0  0  0  0
    6.2979   -5.1969    3.5487 H   0  0  0  0  0  0  0  0  0  0  0  0
    5.4364   -6.3385    5.5743 H   0  0  0  0  0  0  0  0  0  0  0  0
    4.7149   -7.6056    4.5534 H   0  0  0  0  0  0  0  0  0  0  0  0
    6.9640   -8.1882    3.6869 H   0  0  0  0  0  0  0  0  0  0  0  0
    7.6855   -6.9212    4.7079 H   0  0  0  0  0  0  0  0  0  0  0  0
    6.8241   -8.0628    6.7335 H   0  0  0  0  0  0  0  0  0  0  0  0
    6.1025   -9.3298    5.7126 H   0  0  0  0  0  0  0  0  0  0  0  0
    8.3516   -9.9125    4.8461 H   0  0  0  0  0  0  0  0  0  0  0  0
    9.0732   -8.6455    5.8671 H   0  0  0  0  0  0  0  0  0  0  0  0
    8.2117   -9.7871    7.8927 H   0  0  0  0  0  0  0  0  0  0  0  0
    7.4902  -11.0541    6.8718 H   0  0  0  0  0  0  0  0  0  0  0  0
    9.2591  -10.8706    6.9454 H   0  0  0  0  0  0  0  0  0  0  0  0
  1  2  2  0  0  0  0
  1 15  1  0  0  0  0
  1 16  1  0  0  0  0
  2  3  1  0  0  0  0
  2 17  1  0  0  0  0
  3  4  1  0  0  0  0
  3 18  1  0  0  0  0
  3 19  1  0  0  0  0
  4  5  1  0  0  0  0
  4 20  1  0  0  0  0
  4 21  1  0  0  0  0
  5  6  1  0  0  0  0
  5 22  1  0  0  0  0
  5 23  1  0  0  0  0
  6  7  1  0  0  0  0
  6 24  1  0  0  0  0
  6 25  1  0  0  0  0
  7  8  1  0  0  0  0
  7 26  1  0  0  0  0
  7 27  1  0  0  0  0
  8  9  1  0  0  0  0
  8 28  1  0  0  0  0
  8 29  1  0  0  0  0
  9 10  1  0  0  0  0
  9 30  1  0  0  0  0
  9 31  1  0  0  0  0
 10 11  1  0  0  0  0
 10 32  1  0  0  0  0
 10 33  1  0  0  0  0
 11 12  1  0  0  0  0
 11 34  1  0  0  0  0
 11 35  1  0  0  0  0
 12 13  1  0  0  0  0
 12 36  1  0  0  0  0
 12 37  1  0  0  0  0
 13 14  1  0  0  0  0
 13 38  1  0  0  0  0
 13 39  1  0  0  0  0
 14 40  1  0  0  0  0
 14 41  1  0  0  0  0
 14 42  1  0  0  0  0
M  END
$$$$
ZINC000001716101
 OpenBabel08101817233D

 42 42  0  0  0  0  0  0  0  0999 V2000
   -0.0187    1.5258    0.0104 C   0  0  0  0  0  0  0  0  0  0  0  0
    0.0021   -0.0041    0.0020 C   0  0  0  0  0  0  0  0  0  0  0  0
    0.7182   -0.4975   -1.2568 C   0  0  0  0  0  0  0  0  0  0  0  0
    0.7390   -2.0273   -1.2652 C   0  0  0  0  0  0  0  0  0  0  0  0
    1.4551   -2.5207   -2.5240 C   0  0  0  0  0  0  0  0  0  0  0  0
    1.4758   -4.0506   -2.5324 C   0  0  0  0  0  0  0  0  0  0  0  0
    2.1920   -4.5440   -3.7912 C   0  0  0  0  0  0  0  0  0  0  0  0
    2.2127   -6.0738   -3.7996 C   0  0  0  0  0  0  0  0  0  0  0  0
    2.9289   -6.5673   -5.0584 C   0  0  0  0  0  0  0  0  0  0  0  0
    4.3980   -6.1428   -5.0089 C   0  0  0  0  0  0  0  0  0  0  0  0
    5.1141   -6.6362   -6.2677 C   0  0  0  0  0  0  0  0  0  0  0  0
    5.0262   -8.1620   -6.3395 C   0  0  0  0  0  0  0  0  0  0  0  0
    3.5571   -8.5865   -6.3890 C   0  0  0  0  0  0  0  0  0  0  0  0
    2.8410   -8.0930   -5.1302 C   0  0  0  0  0  0  0  0  0  0  0  0
    1.0039    1.9031    0.0027 H   0  0  0  0  0  0  0  0  0  0  0  0
   -0.5459    1.8868   -0.8726 H   0  0  0  0  0  0  0  0  0  0  0  0
   -0.5289    1.8773    0.9072 H   0  0  0  0  0  0  0  0  0  0  0  0
    0.5293   -0.3651    0.8851 H   0  0  0  0  0  0  0  0  0  0  0  0
   -1.0205   -0.3814    0.0098 H   0  0  0  0  0  0  0  0  0  0  0  0
    0.1910   -0.1364   -2.1398 H   0  0  0  0  0  0  0  0  0  0  0  0
    1.7408   -0.1202   -1.2645 H   0  0  0  0  0  0  0  0  0  0  0  0
    1.2661   -2.3884   -0.3821 H   0  0  0  0  0  0  0  0  0  0  0  0
   -0.2836   -2.4046   -1.2575 H   0  0  0  0  0  0  0  0  0  0  0  0
    0.9279   -2.1597   -3.4071 H   0  0  0  0  0  0  0  0  0  0  0  0
    2.4777   -2.1435   -2.5317 H   0  0  0  0  0  0  0  0  0  0  0  0
    2.0030   -4.4117   -1.6494 H   0  0  0  0  0  0  0  0  0  0  0  0
    0.4533   -4.4279   -2.5247 H   0  0  0  0  0  0  0  0  0  0  0  0
    1.6648   -4.1829   -4.6743 H   0  0  0  0  0  0  0  0  0  0  0  0
    3.2146   -4.1667   -3.7990 H   0  0  0  0  0  0  0  0  0  0  0  0
    2.7399   -6.4349   -2.9166 H   0  0  0  0  0  0  0  0  0  0  0  0
    1.1901   -6.4511   -3.7919 H   0  0  0  0  0  0  0  0  0  0  0  0
    2.4551   -6.1342   -5.9394 H   0  0  0  0  0  0  0  0  0  0  0  0
    4.4606   -5.0558   -4.9577 H   0  0  0  0  0  0  0  0  0  0  0  0
    4.8718   -6.5759   -4.1280 H   0  0  0  0  0  0  0  0  0  0  0  0
    4.6403   -6.2031   -7.1486 H   0  0  0  0  0  0  0  0  0  0  0  0
    6.1607   -6.3338   -6.2324 H   0  0  0  0  0  0  0  0  0  0  0  0
    5.5364   -8.5135   -7.2363 H   0  0  0  0  0  0  0  0  0  0  0  0
    5.5001   -8.5951   -5.4586 H   0  0  0  0  0  0  0  0  0  0  0  0
    3.0833   -8.1534   -7.2700 H   0  0  0  0  0  0  0  0  0  0  0  0
    3.4945   -9.6735   -6.4402 H   0  0  0  0  0  0  0  0  0  0  0  0
    3.3148   -8.5261   -4.2493 H   0  0  0  0  0  0  0  0  0  0  0  0
    1.7944   -8.3954   -5.1655 H   0  0  0  0  0  0  0  0  0  0  0  0
  1  2  1  0  0  0  0
  1 15  1  0  0  0  0
  1 16  1  0  0  0  0
  1 17  1  0  0  0  0
  2  3  1  0  0  0  0
  2 18  1  0  0  0  0
  2 19  1  0  0  0  0
  3  4  1  0  0  0  0
  3 20  1  0  0  0  0
  3 21  1  0  0  0  0
  4  5  1  0  0  0  0
  4 22  1  0  0  0  0
  4 23  1  0  0  0  0
  5  6  1  0  0  0  0
  5 24  1  0  0  0  0
  5 25  1  0  0  0  0
  6  7  1  0  0  0  0
  6 26  1  0  0  0  0
  6 27  1  0  0  0  0
  7  8  1  0  0  0  0
  7 28  1  0  0  0  0
  7 29  1  0  0  0  0
  8  9  1  0  0  0  0
  8 30  1  0  0  0  0
  8 31  1  0  0  0  0
  9 14  1  0  0  0  0
  9 10  1  0  0  0  0
  9 32  1  0  0  0  0
 10 11  1  0  0  0  0
 10 33  1  0  0  0  0
 10 34  1  0  0  0  0
 11 12  1  0  0  0  0
 11 35  1  0  0  0  0
 11 36  1  0  0  0  0
 12 13  1  0  0  0  0
 12 37  1  0  0  0  0
 12 38  1  0  0  0  0
 13 14  1  0  0  0  0
 13 39  1  0  0  0  0
 13 40  1  0  0  0  0
 14 41  1  0  0  0  0
 14 42  1  0  0  0  0
M  END
$$$$
ZINC000001718855
 OpenBabel08101817233D

 39 38  0  0  0  0  0  0  0  0999 V2000
   -0.0157    1.3058    0.0092 C   0  0  0  0  0  0  0  0  0  0  0  0
    0.0021   -0.0041    0.0020 C   0  0  0  0  0  0  0  0  0  0  0  0
   -1.2926   -0.7753    0.0102 C   0  0  0  0  0  0  0  0  0  0  0  0
   -1.3187   -1.7407   -1.1764 C   0  0  0  0  0  0  0  0  0  0  0  0
   -2.6332   -2.5237   -1.1680 C   0  0  0  0  0  0  0  0  0  0  0  0
   -2.6593   -3.4891   -2.3547 C   0  0  0  0  0  0  0  0  0  0  0  0
   -3.9737   -4.2721   -2.3463 C   0  0  0  0  0  0  0  0  0  0  0  0
   -3.9998   -5.2376   -3.5330 C   0  0  0  0  0  0  0  0  0  0  0  0
   -5.3143   -6.0205   -3.5246 C   0  0  0  0  0  0  0  0  0  0  0  0
   -5.3404   -6.9860   -4.7113 C   0  0  0  0  0  0  0  0  0  0  0  0
   -6.6548   -7.7689   -4.7029 C   0  0  0  0  0  0  0  0  0  0  0  0
   -6.6809   -8.7344   -5.8895 C   0  0  0  0  0  0  0  0  0  0  0  0
   -7.9954   -9.5174   -5.8812 C   0  0  0  0  0  0  0  0  0  0  0  0
    0.9122    1.8585    0.0033 H   0  0  0  0  0  0  0  0  0  0  0  0
   -0.9582    1.8330    0.0166 H   0  0  0  0  0  0  0  0  0  0  0  0
    0.9446   -0.5313   -0.0098 H   0  0  0  0  0  0  0  0  0  0  0  0
   -1.3737   -1.3393    0.9394 H   0  0  0  0  0  0  0  0  0  0  0  0
   -2.1295   -0.0812   -0.0676 H   0  0  0  0  0  0  0  0  0  0  0  0
   -1.2377   -1.1767   -2.1056 H   0  0  0  0  0  0  0  0  0  0  0  0
   -0.4819   -2.4348   -1.0985 H   0  0  0  0  0  0  0  0  0  0  0  0
   -2.7142   -3.0877   -0.2389 H   0  0  0  0  0  0  0  0  0  0  0  0
   -3.4700   -1.8296   -1.2459 H   0  0  0  0  0  0  0  0  0  0  0  0
   -2.5782   -2.9251   -3.2839 H   0  0  0  0  0  0  0  0  0  0  0  0
   -1.8224   -4.1832   -2.2768 H   0  0  0  0  0  0  0  0  0  0  0  0
   -4.0548   -4.8362   -1.4172 H   0  0  0  0  0  0  0  0  0  0  0  0
   -4.8106   -3.5780   -2.4242 H   0  0  0  0  0  0  0  0  0  0  0  0
   -3.9188   -4.6735   -4.4621 H   0  0  0  0  0  0  0  0  0  0  0  0
   -3.1630   -5.9316   -3.4551 H   0  0  0  0  0  0  0  0  0  0  0  0
   -5.3953   -6.5846   -2.5954 H   0  0  0  0  0  0  0  0  0  0  0  0
   -6.1511   -5.3264   -3.6025 H   0  0  0  0  0  0  0  0  0  0  0  0
   -5.2593   -6.4219   -5.6404 H   0  0  0  0  0  0  0  0  0  0  0  0
   -4.5035   -7.6801   -4.6334 H   0  0  0  0  0  0  0  0  0  0  0  0
   -6.7358   -8.3330   -3.7737 H   0  0  0  0  0  0  0  0  0  0  0  0
   -7.4916   -7.0749   -4.7808 H   0  0  0  0  0  0  0  0  0  0  0  0
   -6.5999   -8.1703   -6.8187 H   0  0  0  0  0  0  0  0  0  0  0  0
   -5.8441   -9.4285   -5.8117 H   0  0  0  0  0  0  0  0  0  0  0  0
   -8.0139  -10.2052   -6.7266 H   0  0  0  0  0  0  0  0  0  0  0  0
   -8.0764  -10.0814   -4.9520 H   0  0  0  0  0  0  0  0  0  0  0  0
   -8.8322   -8.8233   -5.9590 H   0  0  0  0  0  0  0  0  0  0  0  0
  1  2  2  0  0  0  0
  1 14  1  0  0  0  0
  1 15  1  0  0  0  0
  2  3  1  0  0  0  0
  2 16  1  0  0  0  0
  3  4  1  0  0  0  0
  3 17  1  0  0  0  0
  3 18  1  0  0  0  0
  4  5  1  0  0  0  0
  4 19  1  0  0  0  0
  4 20  1  0  0  0  0
  5  6  1  0  0  0  0
  5 21  1  0  0  0  0
  5 22  1  0  0  0  0
  6  7  1  0  0  0  0
  6 23  1  0  0  0  0
  6 24  1  0  0  0  0
  7  8  1  0  0  0  0
  7 25  1  0  0  0  0
  7 26  1  0  0  0  0
  8  9  1  0  0  0  0
  8 27  1  0  0  0  0
  8 28  1  0  0  0  0
  9 10  1  0  0  0  0
  9 29  1  0  0  0  0
  9 30  1  0  0  0  0
 10 11  1  0  0  0  0
 10 31  1  0  0  0  0
 10 32  1  0  0  0  0
 11 12  1  0  0  0  0
 11 33  1  0  0  0  0
 11 34  1  0  0  0  0
 12 13  1  0  0  0  0
 12 35  1  0  0  0  0
 12 36  1  0  0  0  0
 13 37  1  0  0  0  0
 13 38  1  0  0  0  0
 13 39  1  0  0  0  0
M  END
$$$$
ZINC000002560550
 OpenBabel08101817233D

 40 39  0  0  0  0  0  0  0  0999 V2000
   -0.0157    1.3058    0.0092 C   0  0  0  0  0  0  0  0  0  0  0  0
    0.0021   -0.0041    0.0020 C   0  0  0  0  0  0  0  0  0  0  0  0
   -1.2926   -0.7753    0.0102 C   0  0  0  0  0  0  0  0  0  0  0  0
   -1.3187   -1.7407   -1.1764 C   0  0  0  0  0  0  0  0  0  0  0  0
   -2.6332   -2.5237   -1.1680 C   0  0  0  0  0  0  0  0  0  0  0  0
   -2.6593   -3.4891   -2.3547 C   0  0  0  0  0  0  0  0  0  0  0  0
   -3.9737   -4.2721   -2.3463 C   0  0  0  0  0  0  0  0  0  0  0  0
   -3.9998   -5.2376   -3.5330 C   0  0  0  0  0  0  0  0  0  0  0  0
   -5.3143   -6.0205   -3.5246 C   0  0  0  0  0  0  0  0  0  0  0  0
   -5.3404   -6.9860   -4.7113 C   0  0  0  0  0  0  0  0  0  0  0  0
   -6.6548   -7.7689   -4.7029 C   0  0  0  0  0  0  0  0  0  0  0  0
   -6.6809   -8.7344   -5.8895 C   0  0  0  0  0  0  0  0  0  0  0  0
   -7.9756   -9.5056   -5.8813 C   0  0  0  0  0  0  0  0  0  0  0  0
   -8.7470   -9.5017   -6.9401 C   0  0  0  0  0  0  0  0  0  0  0  0
    0.9122    1.8585    0.0033 H   0  0  0  0  0  0  0  0  0  0  0  0
   -0.9582    1.8330    0.0166 H   0  0  0  0  0  0  0  0  0  0  0  0
    0.9446   -0.5313   -0.0098 H   0  0  0  0  0  0  0  0  0  0  0  0
   -1.3737   -1.3393    0.9394 H   0  0  0  0  0  0  0  0  0  0  0  0
   -2.1295   -0.0812   -0.0676 H   0  0  0  0  0  0  0  0  0  0  0  0
   -1.2377   -1.1767   -2.1056 H   0  0  0  0  0  0  0  0  0  0  0  0
   -0.4819   -2.4348   -1.0985 H   0  0  0  0  0  0  0  0  0  0  0  0
   -2.7142   -3.0877   -0.2389 H   0  0  0  0  0  0  0  0  0  0  0  0
   -3.4700   -1.8296   -1.2459 H   0  0  0  0  0  0  0  0  0  0  0  0
   -2.5782   -2.9251   -3.2839 H   0  0  0  0  0  0  0  0  0  0  0  0
   -1.8224   -4.1832   -2.2768 H   0  0  0  0  0  0  0  0  0  0  0  0
   -4.0548   -4.8362   -1.4172 H   0  0  0  0  0  0  0  0  0  0  0  0
   -4.8106   -3.5780   -2.4242 H   0  0  0  0  0  0  0  0  0  0  0  0
   -3.9188   -4.6735   -4.4621 H   0  0  0  0  0  0  0  0  0  0  0  0
   -3.1630   -5.9316   -3.4551 H   0  0  0  0  0  0  0  0  0  0  0  0
   -5.3953   -6.5846   -2.5954 H   0  0  0  0  0  0  0  0  0  0  0  0
   -6.1511   -5.3264   -3.6025 H   0  0  0  0  0  0  0  0  0  0  0  0
   -5.2593   -6.4219   -5.6404 H   0  0  0  0  0  0  0  0  0  0  0  0
   -4.5035   -7.6801   -4.6334 H   0  0  0  0  0  0  0  0  0  0  0  0
   -6.7358   -8.3330   -3.7737 H   0  0  0  0  0  0  0  0  0  0  0  0
   -7.4916   -7.0749   -4.7808 H   0  0  0  0  0  0  0  0  0  0  0  0
   -6.5999   -8.1703   -6.8187 H   0  0  0  0  0  0  0  0  0  0  0  0
   -5.8441   -9.4285   -5.8117 H   0  0  0  0  0  0  0  0  0  0  0  0
   -8.2675  -10.0615   -5.0026 H   0  0  0  0  0  0  0  0  0  0  0  0
   -9.6749  -10.0544   -6.9342 H   0  0  0  0  0  0  0  0  0  0  0  0
   -8.4552   -8.9458   -7.8188 H   0  0  0  0  0  0  0  0  0  0  0  0
  1  2  2  0  0  0  0
  1 15  1  0  0  0  0
  1 16  1  0  0  0  0
  2  3  1  0  0  0  0
  2 17  1  0  0  0  0
  3  4  1  0  0  0  0
  3 18  1  0  0  0  0
  3 19  1  0  0  0  0
  4  5  1  0  0  0  0
  4 20  1  0  0  0  0
  4 21  1  0  0  0  0
  5  6  1  0  0  0  0
  5 22  1  0  0  0  0
  5 23  1  0  0  0  0
  6  7  1  0  0  0  0
  6 24  1  0  0  0  0
  6 25  1  0  0  0  0
  7  8  1  0  0  0  0
  7 26  1  0  0  0  0
  7 27  1  0  0  0  0
  8  9  1  0  0  0  0
  8 28  1  0  0  0  0
  8 29  1  0  0  0  0
  9 10  1  0  0  0  0
  9 30  1  0  0  0  0
  9 31  1  0  0  0  0
 10 11  1  0  0  0  0
 10 32  1  0  0  0  0
 10 33  1  0  0  0  0
 11 12  1  0  0  0  0
 11 34  1  0  0  0  0
 11 35  1  0  0  0  0
 12 13  1  0  0  0  0
 12 36  1  0  0  0  0
 12 37  1  0  0  0  0
 13 14  2  0  0  0  0
 13 38  1  0  0  0  0
 14 39  1  0  0  0  0
 14 40  1  0  0  0  0
M  END
$$$$
ZINC000002528313
 OpenBabel08101817233D

 39 38  0  0  0  0  0  0  0  0999 V2000
   -0.0157    1.3058    0.0092 C   0  0  0  0  0  0  0  0  0  0  0  0
    0.0021   -0.0041    0.0020 C   0  0  0  0  0  0  0  0  0  0  0  0
    1.3172   -0.7397   -0.0145 C   0  0  0  0  0  0  0  0  0  0  0  0
   -1.2926   -0.7753    0.0102 C   0  0  0  0  0  0  0  0  0  0  0  0
   -1.6802   -1.1365   -1.4251 C   0  0  0  0  0  0  0  0  0  0  0  0
   -2.9946   -1.9195   -1.4168 C   0  0  0  0  0  0  0  0  0  0  0  0
   -3.3822   -2.2808   -2.8521 C   0  0  0  0  0  0  0  0  0  0  0  0
   -4.6966   -3.0637   -2.8437 C   0  0  0  0  0  0  0  0  0  0  0  0
   -5.0842   -3.4250   -4.2791 C   0  0  0  0  0  0  0  0  0  0  0  0
   -6.3987   -4.2080   -4.2707 C   0  0  0  0  0  0  0  0  0  0  0  0
   -6.7862   -4.5692   -5.7061 C   0  0  0  0  0  0  0  0  0  0  0  0
   -8.1007   -5.3522   -5.6977 C   0  0  0  0  0  0  0  0  0  0  0  0
   -8.4882   -5.7135   -7.1331 C   0  0  0  0  0  0  0  0  0  0  0  0
    0.9122    1.8585    0.0033 H   0  0  0  0  0  0  0  0  0  0  0  0
   -0.9582    1.8330    0.0166 H   0  0  0  0  0  0  0  0  0  0  0  0
    1.6441   -0.9226    1.0091 H   0  0  0  0  0  0  0  0  0  0  0  0
    1.1949   -1.6910   -0.5323 H   0  0  0  0  0  0  0  0  0  0  0  0
    2.0639   -0.1376   -0.5322 H   0  0  0  0  0  0  0  0  0  0  0  0
   -1.1684   -1.6876    0.5936 H   0  0  0  0  0  0  0  0  0  0  0  0
   -2.0772   -0.1633    0.4553 H   0  0  0  0  0  0  0  0  0  0  0  0
   -1.8044   -0.2242   -2.0085 H   0  0  0  0  0  0  0  0  0  0  0  0
   -0.8956   -1.7484   -1.8702 H   0  0  0  0  0  0  0  0  0  0  0  0
   -2.8704   -2.8318   -0.8334 H   0  0  0  0  0  0  0  0  0  0  0  0
   -3.7792   -1.3076   -0.9716 H   0  0  0  0  0  0  0  0  0  0  0  0
   -3.5064   -1.3684   -3.4355 H   0  0  0  0  0  0  0  0  0  0  0  0
   -2.5976   -2.8927   -3.2972 H   0  0  0  0  0  0  0  0  0  0  0  0
   -4.5724   -3.9760   -2.2603 H   0  0  0  0  0  0  0  0  0  0  0  0
   -5.4812   -2.4518   -2.3986 H   0  0  0  0  0  0  0  0  0  0  0  0
   -5.2084   -2.5127   -4.8625 H   0  0  0  0  0  0  0  0  0  0  0  0
   -4.2996   -4.0369   -4.7242 H   0  0  0  0  0  0  0  0  0  0  0  0
   -6.2744   -5.1203   -3.6873 H   0  0  0  0  0  0  0  0  0  0  0  0
   -7.1832   -3.5960   -3.8256 H   0  0  0  0  0  0  0  0  0  0  0  0
   -6.9104   -3.6569   -6.2895 H   0  0  0  0  0  0  0  0  0  0  0  0
   -6.0016   -5.1811   -6.1512 H   0  0  0  0  0  0  0  0  0  0  0  0
   -7.9764   -6.2645   -5.1143 H   0  0  0  0  0  0  0  0  0  0  0  0
   -8.8852   -4.7403   -5.2526 H   0  0  0  0  0  0  0  0  0  0  0  0
   -9.4247   -6.2713   -7.1271 H   0  0  0  0  0  0  0  0  0  0  0  0
   -8.6124   -4.8012   -7.7164 H   0  0  0  0  0  0  0  0  0  0  0  0
   -7.7036   -6.3254   -7.5782 H   0  0  0  0  0  0  0  0  0  0  0  0
  1  2  2  0  0  0  0
  1 14  1  0  0  0  0
  1 15  1  0  0  0  0
  2  3  1  0  0  0  0
  2  4  1  0  0  0  0
  3 16  1  0  0  0  0
  3 17  1  0  0  0  0
  3 18  1  0  0  0  0
  4  5  1  0  0  0  0
  4 19  1  0  0  0  0
  4 20  1  0  0  0  0
  5  6  1  0  0  0  0
  5 21  1  0  0  0  0
  5 22  1  0  0  0  0
  6  7  1  0  0  0  0
  6 23  1  0  0  0  0
  6 24  1  0  0  0  0
  7  8  1  0  0  0  0
  7 25  1  0  0  0  0
  7 26  1  0  0  0  0
  8  9  1  0  0  0  0
  8 27  1  0  0  0  0
  8 28  1  0  0  0  0
  9 10  1  0  0  0  0
  9 29  1  0  0  0  0
  9 30  1  0  0  0  0
 10 11  1  0  0  0  0
 10 31  1  0  0  0  0
 10 32  1  0  0  0  0
 11 12  1  0  0  0  0
 11 33  1  0  0  0  0
 11 34  1  0  0  0  0
 12 13  1  0  0  0  0
 12 35  1  0  0  0  0
 12 36  1  0  0  0  0
 13 37  1  0  0  0  0
 13 38  1  0  0  0  0
 13 39  1  0  0  0  0
M  END
$$$$
ZINC000082029214
 OpenBabel08101817233D

 41 40  0  0  1  0  0  0  0  0999 V2000
   -0.0187    1.5258    0.0104 C   0  0  0  0  0  0  0  0  0  0  0  0
    0.0021   -0.0041    0.0020 C   0  0  0  0  0  0  0  0  0  0  0  0
    0.7182   -0.4975   -1.2568 C   0  0  0  0  0  0  0  0  0  0  0  0
    0.7390   -2.0273   -1.2652 C   0  0  0  0  0  0  0  0  0  0  0  0
    1.4551   -2.5207   -2.5240 C   0  0  0  0  0  0  0  0  0  0  0  0
    1.4758   -4.0506   -2.5324 C   0  0  0  0  0  0  0  0  0  0  0  0
    2.1920   -4.5440   -3.7912 C   0  0  0  0  0  0  0  0  0  0  0  0
    2.2127   -6.0738   -3.7996 C   0  0  0  0  0  0  0  0  0  0  0  0
    2.9289   -6.5673   -5.0584 C   0  0  1  0  0  0  0  0  0  0  0  0
    2.4551   -6.1342   -5.9394 H   0  0  0  0  0  0  0  0  0  0  0  0
    4.3980   -6.1428   -5.0089 C   0  0  0  0  0  0  0  0  0  0  0  0
    2.8410   -8.0930   -5.1302 C   0  0  0  0  0  0  0  0  0  0  0  0
    3.4469   -8.5773   -6.4491 C   0  0  0  0  0  0  0  0  0  0  0  0
    3.3590  -10.1031   -6.5209 C   0  0  0  0  0  0  0  0  0  0  0  0
    1.0039    1.9031    0.0027 H   0  0  0  0  0  0  0  0  0  0  0  0
   -0.5459    1.8868   -0.8726 H   0  0  0  0  0  0  0  0  0  0  0  0
   -0.5289    1.8773    0.9072 H   0  0  0  0  0  0  0  0  0  0  0  0
    0.5293   -0.3651    0.8851 H   0  0  0  0  0  0  0  0  0  0  0  0
   -1.0205   -0.3814    0.0098 H   0  0  0  0  0  0  0  0  0  0  0  0
    0.1910   -0.1364   -2.1398 H   0  0  0  0  0  0  0  0  0  0  0  0
    1.7408   -0.1202   -1.2645 H   0  0  0  0  0  0  0  0  0  0  0  0
    1.2661   -2.3884   -0.3821 H   0  0  0  0  0  0  0  0  0  0  0  0
   -0.2836   -2.4046   -1.2575 H   0  0  0  0  0  0  0  0  0  0  0  0
    0.9279   -2.1597   -3.4071 H   0  0  0  0  0  0  0  0  0  0  0  0
    2.4777   -2.1435   -2.5317 H   0  0  0  0  0  0  0  0  0  0  0  0
    2.0030   -4.4117   -1.6494 H   0  0  0  0  0  0  0  0  0  0  0  0
    0.4533   -4.4279   -2.5247 H   0  0  0  0  0  0  0  0  0  0  0  0
    1.6648   -4.1829   -4.6743 H   0  0  0  0  0  0  0  0  0  0  0  0
    3.2146   -4.1667   -3.7990 H   0  0  0  0  0  0  0  0  0  0  0  0
    2.7399   -6.4349   -2.9166 H   0  0  0  0  0  0  0  0  0  0  0  0
    1.1901   -6.4511   -3.7919 H   0  0  0  0  0  0  0  0  0  0  0  0
    4.8718   -6.5759   -4.1280 H   0  0  0  0  0  0  0  0  0  0  0  0
    4.9082   -6.4943   -5.9057 H   0  0  0  0  0  0  0  0  0  0  0  0
    4.4606   -5.0558   -4.9577 H   0  0  0  0  0  0  0  0  0  0  0  0
    3.3913   -8.5283   -4.2961 H   0  0  0  0  0  0  0  0  0  0  0  0
    1.7964   -8.3998   -5.0760 H   0  0  0  0  0  0  0  0  0  0  0  0
    2.8966   -8.1420   -7.2832 H   0  0  0  0  0  0  0  0  0  0  0  0
    4.4914   -8.2706   -6.5033 H   0  0  0  0  0  0  0  0  0  0  0  0
    3.9093  -10.5384   -5.6867 H   0  0  0  0  0  0  0  0  0  0  0  0
    2.3145  -10.4098   -6.4666 H   0  0  0  0  0  0  0  0  0  0  0  0
    3.7907  -10.4481   -7.4604 H   0  0  0  0  0  0  0  0  0  0  0  0
  1  2  1  0  0  0  0
  1 15  1  0  0  0  0
  1 16  1  0  0  0  0
  1 17  1  0  0  0  0
  2  3  1  0  0  0  0
  2 18  1  0  0  0  0
  2 19  1  0  0  0  0
  3  4  1  0  0  0  0
  3 20  1  0  0  0  0
  3 21  1  0  0  0  0
  4  5  1  0  0  0  0
  4 22  1  0  0  0  0
  4 23  1  0  0  0  0
  5  6  1  0  0  0  0
  5 24  1  0  0  0  0
  5 25  1  0  0  0  0
  6  7  1  0  0  0  0
  6 26  1  0  0  0  0
  6 27  1  0  0  0  0
  7  8  1  0  0  0  0
  7 28  1  0  0  0  0
  7 29  1  0  0  0  0
  8  9  1  0  0  0  0
  8 30  1  0  0  0  0
  8 31  1  0  0  0  0
  9 10  1  6  0  0  0
  9 11  1  0  0  0  0
  9 12  1  0  0  0  0
 11 32  1  0  0  0  0
 11 33  1  0  0  0  0
 11 34  1  0  0  0  0
 12 13  1  0  0  0  0
 12 35  1  0  0  0  0
 12 36  1  0  0  0  0
 13 14  1  0  0  0  0
 13 37  1  0  0  0  0
 13 38  1  0  0  0  0
 14 39  1  0  0  0  0
 14 40  1  0  0  0  0
 14 41  1  0  0  0  0
M  END
$$$$
ZINC000001698519
 OpenBabel08101817233D

 44 43  0  0  0  0  0  0  0  0999 V2000
   -0.0187    1.5258    0.0104 C   0  0  0  0  0  0  0  0  0  0  0  0
    0.0021   -0.0041    0.0020 C   0  0  0  0  0  0  0  0  0  0  0  0
    0.7182   -0.4975   -1.2568 C   0  0  0  0  0  0  0  0  0  0  0  0
    0.7390   -2.0273   -1.2652 C   0  0  0  0  0  0  0  0  0  0  0  0
    1.4551   -2.5207   -2.5240 C   0  0  0  0  0  0  0  0  0  0  0  0
    1.4758   -4.0506   -2.5324 C   0  0  0  0  0  0  0  0  0  0  0  0
    2.1920   -4.5440   -3.7912 C   0  0  0  0  0  0  0  0  0  0  0  0
    2.2127   -6.0738   -3.7996 C   0  0  0  0  0  0  0  0  0  0  0  0
    2.9289   -6.5673   -5.0584 C   0  0  0  0  0  0  0  0  0  0  0  0
    2.9496   -8.0971   -5.0668 C   0  0  0  0  0  0  0  0  0  0  0  0
    3.6658   -8.5905   -6.3257 C   0  0  0  0  0  0  0  0  0  0  0  0
    3.6865  -10.1203   -6.3341 C   0  0  0  0  0  0  0  0  0  0  0  0
    4.4026  -10.6138   -7.5929 C   0  0  0  0  0  0  0  0  0  0  0  0
    4.4234  -12.1436   -7.6013 C   0  0  0  0  0  0  0  0  0  0  0  0
    1.0039    1.9031    0.0027 H   0  0  0  0  0  0  0  0  0  0  0  0
   -0.5459    1.8868   -0.8726 H   0  0  0  0  0  0  0  0  0  0  0  0
   -0.5289    1.8773    0.9072 H   0  0  0  0  0  0  0  0  0  0  0  0
    0.5293   -0.3651    0.8851 H   0  0  0  0  0  0  0  0  0  0  0  0
   -1.0205   -0.3814    0.0098 H   0  0  0  0  0  0  0  0  0  0  0  0
    0.1910   -0.1364   -2.1398 H   0  0  0  0  0  0  0  0  0  0  0  0
    1.7408   -0.1202   -1.2645 H   0  0  0  0  0  0  0  0  0  0  0  0
    1.2661   -2.3884   -0.3821 H   0  0  0  0  0  0  0  0  0  0  0  0
   -0.2836   -2.4046   -1.2575 H   0  0  0  0  0  0  0  0  0  0  0  0
    0.9279   -2.1597   -3.4071 H   0  0  0  0  0  0  0  0  0  0  0  0
    2.4777   -2.1435   -2.5317 H   0  0  0  0  0  0  0  0  0  0  0  0
    2.0030   -4.4117   -1.6494 H   0  0  0  0  0  0  0  0  0  0  0  0
    0.4533   -4.4279   -2.5247 H   0  0  0  0  0  0  0  0  0  0  0  0
    1.6648   -4.1829   -4.6743 H   0  0  0  0  0  0  0  0  0  0  0  0
    3.2146   -4.1667   -3.7990 H   0  0  0  0  0  0  0  0  0  0  0  0
    2.7399   -6.4349   -2.9166 H   0  0  0  0  0  0  0  0  0  0  0  0
    1.1901   -6.4511   -3.7919 H   0  0  0  0  0  0  0  0  0  0  0  0
    2.4017   -6.2062   -5.9415 H   0  0  0  0  0  0  0  0  0  0  0  0
    3.9515   -6.1900   -5.0662 H   0  0  0  0  0  0  0  0  0  0  0  0
    3.4768   -8.4582   -4.1838 H   0  0  0  0  0  0  0  0  0  0  0  0
    1.9270   -8.4744   -5.0591 H   0  0  0  0  0  0  0  0  0  0  0  0
    3.1386   -8.2294   -7.2087 H   0  0  0  0  0  0  0  0  0  0  0  0
    4.6884   -8.2132   -6.3334 H   0  0  0  0  0  0  0  0  0  0  0  0
    4.2137  -10.4814   -5.4510 H   0  0  0  0  0  0  0  0  0  0  0  0
    2.6639  -10.4976   -6.3263 H   0  0  0  0  0  0  0  0  0  0  0  0
    3.8755  -10.2527   -8.4759 H   0  0  0  0  0  0  0  0  0  0  0  0
    5.4252  -10.2365   -7.6006 H   0  0  0  0  0  0  0  0  0  0  0  0
    4.9336  -12.4951   -8.4981 H   0  0  0  0  0  0  0  0  0  0  0  0
    4.9506  -12.5047   -6.7182 H   0  0  0  0  0  0  0  0  0  0  0  0
    3.4008  -12.5209   -7.5935 H   0  0  0  0  0  0  0  0  0  0  0  0
  1  2  1  0  0  0  0
  1 15  1  0  0  0  0
  1 16  1  0  0  0  0
  1 17  1  0  0  0  0
  2  3  1  0  0  0  0
  2 18  1  0  0  0  0
  2 19  1  0  0  0  0
  3  4  1  0  0  0  0
  3 20  1  0  0  0  0
  3 21  1  0  0  0  0
  4  5  1  0  0  0  0
  4 22  1  0  0  0  0
  4 23  1  0  0  0  0
  5  6  1  0  0  0  0
  5 24  1  0  0  0  0
  5 25  1  0  0  0  0
  6  7  1  0  0  0  0
  6 26  1  0  0  0  0
  6 27  1  0  0  0  0
  7  8  1  0  0  0  0
  7 28  1  0  0  0  0
  7 29  1  0  0  0  0
  8  9  1  0  0  0  0
  8 30  1  0  0  0  0
  8 31  1  0  0  0  0
  9 10  1  0  0  0  0
  9 32  1  0  0  0  0
  9 33  1  0  0  0  0
 10 11  1  0  0  0  0
 10 34  1  0  0  0  0
 10 35  1  0  0  0  0
 11 12  1  0  0  0  0
 11 36  1  0  0  0  0
 11 37  1  0  0  0  0
 12 13  1  0  0  0  0
 12 38  1  0  0  0  0
 12 39  1  0  0  0  0
 13 14  1  0  0  0  0
 13 40  1  0  0  0  0
 13 41  1  0  0  0  0
 14 42  1  0  0  0  0
 14 43  1  0  0  0  0
 14 44  1  0  0  0  0
M  END
$$$$
ZINC000002564125
 OpenBabel08101817233D

 41 40  0  0  1  0  0  0  0  0999 V2000
   -0.0187    1.5258    0.0104 C   0  0  0  0  0  0  0  0  0  0  0  0
    0.0021   -0.0041    0.0020 C   0  0  0  0  0  0  0  0  0  0  0  0
    0.7182   -0.4975   -1.2568 C   0  0  0  0  0  0  0  0  0  0  0  0
    0.7390   -2.0273   -1.2652 C   0  0  0  0  0  0  0  0  0  0  0  0
    1.4551   -2.5207   -2.5240 C   0  0  0  0  0  0  0  0  0  0  0  0
    1.4758   -4.0506   -2.5324 C   0  0  0  0  0  0  0  0  0  0  0  0
    2.1920   -4.5440   -3.7912 C   0  0  0  0  0  0  0  0  0  0  0  0
    2.2127   -6.0738   -3.7996 C   0  0  0  0  0  0  0  0  0  0  0  0
    2.9289   -6.5673   -5.0584 C   0  0  2  0  0  0  0  0  0  0  0  0
    3.9210   -6.1188   -5.1114 H   0  0  0  0  0  0  0  0  0  0  0  0
    2.1214   -6.1666   -6.2947 C   0  0  0  0  0  0  0  0  0  0  0  0
    3.0599   -8.0907   -5.0066 C   0  0  0  0  0  0  0  0  0  0  0  0
    3.8842   -8.5727   -6.2021 C   0  0  0  0  0  0  0  0  0  0  0  0
    4.0152  -10.0962   -6.1502 C   0  0  0  0  0  0  0  0  0  0  0  0
    1.0039    1.9031    0.0027 H   0  0  0  0  0  0  0  0  0  0  0  0
   -0.5459    1.8868   -0.8726 H   0  0  0  0  0  0  0  0  0  0  0  0
   -0.5289    1.8773    0.9072 H   0  0  0  0  0  0  0  0  0  0  0  0
    0.5293   -0.3651    0.8851 H   0  0  0  0  0  0  0  0  0  0  0  0
   -1.0205   -0.3814    0.0098 H   0  0  0  0  0  0  0  0  0  0  0  0
    0.1910   -0.1364   -2.1398 H   0  0  0  0  0  0  0  0  0  0  0  0
    1.7408   -0.1202   -1.2645 H   0  0  0  0  0  0  0  0  0  0  0  0
    1.2661   -2.3884   -0.3821 H   0  0  0  0  0  0  0  0  0  0  0  0
   -0.2836   -2.4046   -1.2575 H   0  0  0  0  0  0  0  0  0  0  0  0
    0.9279   -2.1597   -3.4071 H   0  0  0  0  0  0  0  0  0  0  0  0
    2.4777   -2.1435   -2.5317 H   0  0  0  0  0  0  0  0  0  0  0  0
    2.0030   -4.4117   -1.6494 H   0  0  0  0  0  0  0  0  0  0  0  0
    0.4533   -4.4279   -2.5247 H   0  0  0  0  0  0  0  0  0  0  0  0
    1.6648   -4.1829   -4.6743 H   0  0  0  0  0  0  0  0  0  0  0  0
    3.2146   -4.1667   -3.7990 H   0  0  0  0  0  0  0  0  0  0  0  0
    2.7399   -6.4349   -2.9166 H   0  0  0  0  0  0  0  0  0  0  0  0
    1.1901   -6.4511   -3.7919 H   0  0  0  0  0  0  0  0  0  0  0  0
    1.1293   -6.6150   -6.2417 H   0  0  0  0  0  0  0  0  0  0  0  0
    2.0281   -5.0812   -6.3317 H   0  0  0  0  0  0  0  0  0  0  0  0
    2.6316   -6.5181   -7.1915 H   0  0  0  0  0  0  0  0  0  0  0  0
    3.5575   -8.3813   -4.0813 H   0  0  0  0  0  0  0  0  0  0  0  0
    2.0685   -8.5422   -5.0432 H   0  0  0  0  0  0  0  0  0  0  0  0
    3.3866   -8.2821   -7.1273 H   0  0  0  0  0  0  0  0  0  0  0  0
    4.8757   -8.1213   -6.1654 H   0  0  0  0  0  0  0  0  0  0  0  0
    4.5128  -10.3868   -5.2250 H   0  0  0  0  0  0  0  0  0  0  0  0
    3.0238  -10.5476   -6.1868 H   0  0  0  0  0  0  0  0  0  0  0  0
    4.6025  -10.4396   -7.0019 H   0  0  0  0  0  0  0  0  0  0  0  0
  1  2  1  0  0  0  0
  1 15  1  0  0  0  0
  1 16  1  0  0  0  0
  1 17  1  0  0  0  0
  2  3  1  0  0  0  0
  2 18  1  0  0  0  0
  2 19  1  0  0  0  0
  3  4  1  0  0  0  0
  3 20  1  0  0  0  0
  3 21  1  0  0  0  0
  4  5  1  0  0  0  0
  4 22  1  0  0  0  0
  4 23  1  0  0  0  0
  5  6  1  0  0  0  0
  5 24  1  0  0  0  0
  5 25  1  0  0  0  0
  6  7  1  0  0  0  0
  6 26  1  0  0  0  0
  6 27  1  0  0  0  0
  7  8  1  0  0  0  0
  7 28  1  0  0  0  0
  7 29  1  0  0  0  0
  8  9  1  0  0  0  0
  8 30  1  0  0  0  0
  8 31  1  0  0  0  0
  9 10  1  6  0  0  0
  9 11  1  0  0  0  0
  9 12  1  0  0  0  0
 11 32  1  0  0  0  0
 11 33  1  0  0  0  0
 11 34  1  0  0  0  0
 12 13  1  0  0  0  0
 12 35  1  0  0  0  0
 12 36  1  0  0  0  0
 13 14  1  0  0  0  0
 13 37  1  0  0  0  0
 13 38  1  0  0  0  0
 14 39  1  0  0  0  0
 14 40  1  0  0  0  0
 14 41  1  0  0  0  0
M  END
$$$$
ZINC000002539252
 OpenBabel08101817233D

 42 41  0  0  0  0  0  0  0  0999 V2000
   -0.0187    1.5258    0.0104 C   0  0  0  0  0  0  0  0  0  0  0  0
    0.0021   -0.0041    0.0020 C   0  0  0  0  0  0  0  0  0  0  0  0
    0.7421   -0.5109    1.2415 C   0  0  0  0  0  0  0  0  0  0  0  0
    0.7628   -2.0407    1.2331 C   0  0  0  0  0  0  0  0  0  0  0  0
    1.5028   -2.5476    2.4727 C   0  0  0  0  0  0  0  0  0  0  0  0
    1.5236   -4.0774    2.4642 C   0  0  0  0  0  0  0  0  0  0  0  0
    2.2524   -4.5766    3.6851 C   0  0  0  0  0  0  0  0  0  0  0  0
    1.6670   -5.4210    4.4979 C   0  0  0  0  0  0  0  0  0  0  0  0
    2.3959   -5.9202    5.7188 C   0  0  0  0  0  0  0  0  0  0  0  0
    1.5526   -5.6433    6.9650 C   0  0  0  0  0  0  0  0  0  0  0  0
    2.2926   -6.1501    8.2045 C   0  0  0  0  0  0  0  0  0  0  0  0
    1.4492   -5.8732    9.4507 C   0  0  0  0  0  0  0  0  0  0  0  0
    2.1892   -6.3801   10.6902 C   0  0  0  0  0  0  0  0  0  0  0  0
    1.3459   -6.1032   11.9364 C   0  0  0  0  0  0  0  0  0  0  0  0
    1.0039    1.9031    0.0027 H   0  0  0  0  0  0  0  0  0  0  0  0
   -0.5459    1.8868   -0.8726 H   0  0  0  0  0  0  0  0  0  0  0  0
   -0.5289    1.8773    0.9072 H   0  0  0  0  0  0  0  0  0  0  0  0
   -1.0205   -0.3814    0.0098 H   0  0  0  0  0  0  0  0  0  0  0  0
    0.5123   -0.3556   -0.8948 H   0  0  0  0  0  0  0  0  0  0  0  0
    1.7647   -0.1336    1.2338 H   0  0  0  0  0  0  0  0  0  0  0  0
    0.2319   -0.1594    2.1383 H   0  0  0  0  0  0  0  0  0  0  0  0
   -0.2598   -2.4180    1.2409 H   0  0  0  0  0  0  0  0  0  0  0  0
    1.2730   -2.3923    0.3363 H   0  0  0  0  0  0  0  0  0  0  0  0
    2.5254   -2.1703    2.4649 H   0  0  0  0  0  0  0  0  0  0  0  0
    0.9926   -2.1961    3.3695 H   0  0  0  0  0  0  0  0  0  0  0  0
    0.5010   -4.4547    2.4720 H   0  0  0  0  0  0  0  0  0  0  0  0
    2.0337   -4.4289    1.5675 H   0  0  0  0  0  0  0  0  0  0  0  0
    3.2574   -4.2383    3.8901 H   0  0  0  0  0  0  0  0  0  0  0  0
    0.6621   -5.7593    4.2929 H   0  0  0  0  0  0  0  0  0  0  0  0
    2.5668   -6.9928    5.6266 H   0  0  0  0  0  0  0  0  0  0  0  0
    3.3530   -5.4059    5.8061 H   0  0  0  0  0  0  0  0  0  0  0  0
    1.3817   -4.5707    7.0571 H   0  0  0  0  0  0  0  0  0  0  0  0
    0.5955   -6.1575    6.8776 H   0  0  0  0  0  0  0  0  0  0  0  0
    2.4635   -7.2227    8.1124 H   0  0  0  0  0  0  0  0  0  0  0  0
    3.2497   -5.6359    8.2918 H   0  0  0  0  0  0  0  0  0  0  0  0
    1.2783   -4.8007    9.5428 H   0  0  0  0  0  0  0  0  0  0  0  0
    0.4921   -6.3875    9.3633 H   0  0  0  0  0  0  0  0  0  0  0  0
    2.3601   -7.4526   10.5981 H   0  0  0  0  0  0  0  0  0  0  0  0
    3.1463   -5.8658   10.7776 H   0  0  0  0  0  0  0  0  0  0  0  0
    1.8731   -6.4643   12.8195 H   0  0  0  0  0  0  0  0  0  0  0  0
    1.1750   -5.0306   12.0285 H   0  0  0  0  0  0  0  0  0  0  0  0
    0.3888   -6.6174   11.8490 H   0  0  0  0  0  0  0  0  0  0  0  0
  1  2  1  0  0  0  0
  1 15  1  0  0  0  0
  1 16  1  0  0  0  0
  1 17  1  0  0  0  0
  2  3  1  0  0  0  0
  2 18  1  0  0  0  0
  2 19  1  0  0  0  0
  3  4  1  0  0  0  0
  3 20  1  0  0  0  0
  3 21  1  0  0  0  0
  4  5  1  0  0  0  0
  4 22  1  0  0  0  0
  4 23  1  0  0  0  0
  5  6  1  0  0  0  0
  5 24  1  0  0  0  0
  5 25  1  0  0  0  0
  6  7  1  0  0  0  0
  6 26  1  0  0  0  0
  6 27  1  0  0  0  0
  7  8  2  0  0  0  0
  7 28  1  0  0  0  0
  8  9  1  0  0  0  0
  8 29  1  0  0  0  0
  9 10  1  0  0  0  0
  9 30  1  0  0  0  0
  9 31  1  0  0  0  0
 10 11  1  0  0  0  0
 10 32  1  0  0  0  0
 10 33  1  0  0  0  0
 11 12  1  0  0  0  0
 11 34  1  0  0  0  0
 11 35  1  0  0  0  0
 12 13  1  0  0  0  0
 12 36  1  0  0  0  0
 12 37  1  0  0  0  0
 13 14  1  0  0  0  0
 13 38  1  0  0  0  0
 13 39  1  0  0  0  0
 14 40  1  0  0  0  0
 14 41  1  0  0  0  0
 14 42  1  0  0  0  0
M  END
$$$$
