ZINC000002563403
 OpenBabel08101817233D

 44 43  0  0  1  0  0  0  0  0999 V2000
   -0.0187    1.5258    0.0104 C   0  0  0  0  0  0  0  0  0  0  0  0
    0.0021   -0.0041    0.0020 C   0  0  0  0  0  0  0  0  0  0  0  0
    0.7421   -0.5109    1.2415 C   0  0  0  0  0  0  0  0  0  0  0  0
    0.7628   -2.0407    1.2331 C   0  0  0  0  0  0  0  0  0  0  0  0
    1.5028   -2.5476    2.4727 C   0  0  0  0  0  0  0  0  0  0  0  0
    1.5236   -4.0774    2.4642 C   0  0  0  0  0  0  0  0  0  0  0  0
    2.2636   -4.5842    3.7038 C   0  0  0  0  0  0  0  0  0  0  0  0
    2.2843   -6.1141    3.6954 C   0  0  0  0  0  0  0  0  0  0  0  0
    3.0243   -6.6209    4.9349 C   0  0  0  0  0  0  0  0  0  0  0  0
    3.0450   -8.1508    4.9265 C   0  0  0  0  0  0  0  0  0  0  0  0
    3.7850   -8.6576    6.1660 C   0  0  2  0  0  0  0  0  0  0  0  0
    3.3282   -8.2340    7.0604 H   0  0  0  0  0  0  0  0  0  0  0  0
    5.2530   -8.2325    6.0930 C   0  0  0  0  0  0  0  0  0  0  0  0
    3.6984  -10.1841    6.2231 C   0  0  0  0  0  0  0  0  0  0  0  0
    4.3293  -10.6824    7.5248 C   0  0  0  0  0  0  0  0  0  0  0  0
    1.0039    1.9031    0.0027 H   0  0  0  0  0  0  0  0  0  0  0  0
   -0.5459    1.8868   -0.8726 H   0  0  0  0  0  0  0  0  0  0  0  0
   -0.5289    1.8773    0.9072 H   0  0  0  0  0  0  0  0  0  0  0  0
   -1.0205   -0.3814    0.0098 H   0  0  0  0  0  0  0  0  0  0  0  0
    0.5123   -0.3556   -0.8948 H   0  0  0  0  0  0  0  0  0  0  0  0
    1.7647   -0.1336    1.2338 H   0  0  0  0  0  0  0  0  0  0  0  0
    0.2319   -0.1594    2.1383 H   0  0  0  0  0  0  0  0  0  0  0  0
   -0.2598   -2.4180    1.2409 H   0  0  0  0  0  0  0  0  0  0  0  0
    1.2730   -2.3923    0.3363 H   0  0  0  0  0  0  0  0  0  0  0  0
    2.5254   -2.1703    2.4649 H   0  0  0  0  0  0  0  0  0  0  0  0
    0.9926   -2.1961    3.3695 H   0  0  0  0  0  0  0  0  0  0  0  0
    0.5010   -4.4547    2.4720 H   0  0  0  0  0  0  0  0  0  0  0  0
    2.0337   -4.4289    1.5675 H   0  0  0  0  0  0  0  0  0  0  0  0
    3.2861   -4.2070    3.6960 H   0  0  0  0  0  0  0  0  0  0  0  0
    1.7534   -4.2327    4.6006 H   0  0  0  0  0  0  0  0  0  0  0  0
    1.2617   -6.4914    3.7031 H   0  0  0  0  0  0  0  0  0  0  0  0
    2.7945   -6.4656    2.7986 H   0  0  0  0  0  0  0  0  0  0  0  0
    4.0469   -6.2436    4.9271 H   0  0  0  0  0  0  0  0  0  0  0  0
    2.5141   -6.2694    5.8317 H   0  0  0  0  0  0  0  0  0  0  0  0
    2.0224   -8.5280    4.9342 H   0  0  0  0  0  0  0  0  0  0  0  0
    3.5552   -8.5023    4.0297 H   0  0  0  0  0  0  0  0  0  0  0  0
    5.7098   -8.6560    5.1986 H   0  0  0  0  0  0  0  0  0  0  0  0
    5.3147   -7.1450    6.0523 H   0  0  0  0  0  0  0  0  0  0  0  0
    5.7802   -8.5936    6.9760 H   0  0  0  0  0  0  0  0  0  0  0  0
    2.6530  -10.4903    6.1855 H   0  0  0  0  0  0  0  0  0  0  0  0
    4.2326  -10.6103    5.3739 H   0  0  0  0  0  0  0  0  0  0  0  0
    4.2676  -11.7699    7.5655 H   0  0  0  0  0  0  0  0  0  0  0  0
    5.3747  -10.3762    7.5624 H   0  0  0  0  0  0  0  0  0  0  0  0
    3.7951  -10.2561    8.3739 H   0  0  0  0  0  0  0  0  0  0  0  0
  1  2  1  0  0  0  0
  1 16  1  0  0  0  0
  1 17  1  0  0  0  0
  1 18  1  0  0  0  0
  2  3  1  0  0  0  0
  2 19  1  0  0  0  0
  2 20  1  0  0  0  0
  3  4  1  0  0  0  0
  3 21  1  0  0  0  0
  3 22  1  0  0  0  0
  4  5  1  0  0  0  0
  4 23  1  0  0  0  0
  4 24  1  0  0  0  0
  5  6  1  0  0  0  0
  5 25  1  0  0  0  0
  5 26  1  0  0  0  0
  6  7  1  0  0  0  0
  6 27  1  0  0  0  0
  6 28  1  0  0  0  0
  7  8  1  0  0  0  0
  7 29  1  0  0  0  0
  7 30  1  0  0  0  0
  8  9  1  0  0  0  0
  8 31  1  0  0  0  0
  8 32  1  0  0  0  0
  9 10  1  0  0  0  0
  9 33  1  0  0  0  0
  9 34  1  0  0  0  0
 10 11  1  0  0  0  0
 10 35  1  0  0  0  0
 10 36  1  0  0  0  0
 11 12  1  1  0  0  0
 11 13  1  0  0  0  0
 11 14  1  0  0  0  0
 13 37  1  0  0  0  0
 13 38  1  0  0  0  0
 13 39  1  0  0  0  0
 14 15  1  0  0  0  0
 14 40  1  0  0  0  0
 14 41  1  0  0  0  0
 15 42  1  0  0  0  0
 15 43  1  0  0  0  0
 15 44  1  0  0  0  0
M  END
$$$$
ZINC000070455559
 OpenBabel08101817233D

 44 43  0  0  1  0  0  0  0  0999 V2000
   -0.0187    1.5258    0.0104 C   0  0  0  0  0  0  0  0  0  0  0  0
    0.0021   -0.0041    0.0020 C   0  0  0  0  0  0  0  0  0  0  0  0
    0.7421   -0.5109    1.2415 C   0  0  0  0  0  0  0  0  0  0  0  0
    0.7628   -2.0407    1.2331 C   0  0  0  0  0  0  0  0  0  0  0  0
    1.5028   -2.5476    2.4727 C   0  0  0  0  0  0  0  0  0  0  0  0
    1.5236   -4.0774    2.4642 C   0  0  0  0  0  0  0  0  0  0  0  0
    2.2636   -4.5842    3.7038 C   0  0  0  0  0  0  0  0  0  0  0  0
    2.2843   -6.1141    3.6954 C   0  0  0  0  0  0  0  0  0  0  0  0
    3.0243   -6.6209    4.9349 C   0  0  0  0  0  0  0  0  0  0  0  0
    3.0450   -8.1508    4.9265 C   0  0  0  0  0  0  0  0  0  0  0  0
    3.7850   -8.6576    6.1660 C   0  0  1  0  0  0  0  0  0  0  0  0
    4.7780   -8.2097    6.2048 H   0  0  0  0  0  0  0  0  0  0  0  0
    3.0014   -8.2703    7.4217 C   0  0  0  0  0  0  0  0  0  0  0  0
    3.9149  -10.1804    6.0953 C   0  0  0  0  0  0  0  0  0  0  0  0
    4.7618  -10.6751    7.2696 C   0  0  0  0  0  0  0  0  0  0  0  0
    1.0039    1.9031    0.0027 H   0  0  0  0  0  0  0  0  0  0  0  0
   -0.5459    1.8868   -0.8726 H   0  0  0  0  0  0  0  0  0  0  0  0
   -0.5289    1.8773    0.9072 H   0  0  0  0  0  0  0  0  0  0  0  0
   -1.0205   -0.3814    0.0098 H   0  0  0  0  0  0  0  0  0  0  0  0
    0.5123   -0.3556   -0.8948 H   0  0  0  0  0  0  0  0  0  0  0  0
    1.7647   -0.1336    1.2338 H   0  0  0  0  0  0  0  0  0  0  0  0
    0.2319   -0.1594    2.1383 H   0  0  0  0  0  0  0  0  0  0  0  0
   -0.2598   -2.4180    1.2409 H   0  0  0  0  0  0  0  0  0  0  0  0
    1.2730   -2.3923    0.3363 H   0  0  0  0  0  0  0  0  0  0  0  0
    2.5254   -2.1703    2.4649 H   0  0  0  0  0  0  0  0  0  0  0  0
    0.9926   -2.1961    3.3695 H   0  0  0  0  0  0  0  0  0  0  0  0
    0.5010   -4.4547    2.4720 H   0  0  0  0  0  0  0  0  0  0  0  0
    2.0337   -4.4289    1.5675 H   0  0  0  0  0  0  0  0  0  0  0  0
    3.2861   -4.2070    3.6960 H   0  0  0  0  0  0  0  0  0  0  0  0
    1.7534   -4.2327    4.6006 H   0  0  0  0  0  0  0  0  0  0  0  0
    1.2617   -6.4914    3.7031 H   0  0  0  0  0  0  0  0  0  0  0  0
    2.7945   -6.4656    2.7986 H   0  0  0  0  0  0  0  0  0  0  0  0
    4.0469   -6.2436    4.9271 H   0  0  0  0  0  0  0  0  0  0  0  0
    2.5141   -6.2694    5.8317 H   0  0  0  0  0  0  0  0  0  0  0  0
    2.0224   -8.5280    4.9342 H   0  0  0  0  0  0  0  0  0  0  0  0
    3.5552   -8.5023    4.0297 H   0  0  0  0  0  0  0  0  0  0  0  0
    2.0084   -8.7182    7.3829 H   0  0  0  0  0  0  0  0  0  0  0  0
    3.5286   -8.6314    8.3048 H   0  0  0  0  0  0  0  0  0  0  0  0
    2.9089   -7.1854    7.4721 H   0  0  0  0  0  0  0  0  0  0  0  0
    2.9243  -10.6323    6.1460 H   0  0  0  0  0  0  0  0  0  0  0  0
    4.3947  -10.4610    5.1577 H   0  0  0  0  0  0  0  0  0  0  0  0
    4.8543  -11.7600    7.2192 H   0  0  0  0  0  0  0  0  0  0  0  0
    5.7524  -10.2232    7.2189 H   0  0  0  0  0  0  0  0  0  0  0  0
    4.2820  -10.3945    8.2072 H   0  0  0  0  0  0  0  0  0  0  0  0
  1  2  1  0  0  0  0
  1 16  1  0  0  0  0
  1 17  1  0  0  0  0
  1 18  1  0  0  0  0
  2  3  1  0  0  0  0
  2 19  1  0  0  0  0
  2 20  1  0  0  0  0
  3  4  1  0  0  0  0
  3 21  1  0  0  0  0
  3 22  1  0  0  0  0
  4  5  1  0  0  0  0
  4 23  1  0  0  0  0
  4 24  1  0  0  0  0
  5  6  1  0  0  0  0
  5 25  1  0  0  0  0
  5 26  1  0  0  0  0
  6  7  1  0  0  0  0
  6 27  1  0  0  0  0
  6 28  1  0  0  0  0
  7  8  1  0  0  0  0
  7 29  1  0  0  0  0
  7 30  1  0  0  0  0
  8  9  1  0  0  0  0
  8 31  1  0  0  0  0
  8 32  1  0  0  0  0
  9 10  1  0  0  0  0
  9 33  1  0  0  0  0
  9 34  1  0  0  0  0
 10 11  1  0  0  0  0
 10 35  1  0  0  0  0
 10 36  1  0  0  0  0
 11 12  1  1  0  0  0
 11 13  1  0  0  0  0
 11 14  1  0  0  0  0
 13 37  1  0  0  0  0
 13 38  1  0  0  0  0
 13 39  1  0  0  0  0
 14 15  1  0  0  0  0
 14 40  1  0  0  0  0
 14 41  1  0  0  0  0
 15 42  1  0  0  0  0
 15 43  1  0  0  0  0
 15 44  1  0  0  0  0
M  END
$$$$
ZINC000002560571
 OpenBabel08101817233D

 42 41  0  0  0  0  0  0  0  0999 V2000
   -0.0157    1.3058    0.0092 C   0  0  0  0  0  0  0  0  0  0  0  0
    0.0021   -0.0041    0.0020 C   0  0  0  0  0  0  0  0  0  0  0  0
   -1.2926   -0.7753    0.0102 C   0  0  0  0  0  0  0  0  0  0  0  0
    1.3172   -0.7397   -0.0145 C   0  0  0  0  0  0  0  0  0  0  0  0
    1.7146   -1.1061    1.4168 C   0  0  0  0  0  0  0  0  0  0  0  0
    3.0498   -1.8530    1.4001 C   0  0  0  0  0  0  0  0  0  0  0  0
    3.4473   -2.2194    2.8314 C   0  0  0  0  0  0  0  0  0  0  0  0
    4.7825   -2.9663    2.8147 C   0  0  0  0  0  0  0  0  0  0  0  0
    5.1799   -3.3327    4.2460 C   0  0  0  0  0  0  0  0  0  0  0  0
    6.5151   -4.0796    4.2292 C   0  0  0  0  0  0  0  0  0  0  0  0
    6.9125   -4.4460    5.6606 C   0  0  0  0  0  0  0  0  0  0  0  0
    8.2477   -5.1928    5.6438 C   0  0  0  0  0  0  0  0  0  0  0  0
    8.6451   -5.5592    7.0751 C   0  0  0  0  0  0  0  0  0  0  0  0
    9.9803   -6.3061    7.0584 C   0  0  0  0  0  0  0  0  0  0  0  0
    0.9122    1.8585    0.0033 H   0  0  0  0  0  0  0  0  0  0  0  0
   -0.9582    1.8330    0.0166 H   0  0  0  0  0  0  0  0  0  0  0  0
   -2.1306   -0.0783    0.0220 H   0  0  0  0  0  0  0  0  0  0  0  0
   -1.3504   -1.3978   -0.8826 H   0  0  0  0  0  0  0  0  0  0  0  0
   -1.3334   -1.4074    0.8973 H   0  0  0  0  0  0  0  0  0  0  0  0
    1.2177   -1.6486   -0.6079 H   0  0  0  0  0  0  0  0  0  0  0  0
    2.0848   -0.1019   -0.4527 H   0  0  0  0  0  0  0  0  0  0  0  0
    1.8141   -0.1972    2.0103 H   0  0  0  0  0  0  0  0  0  0  0  0
    0.9470   -1.7439    1.8551 H   0  0  0  0  0  0  0  0  0  0  0  0
    2.9503   -2.7619    0.8067 H   0  0  0  0  0  0  0  0  0  0  0  0
    3.8175   -1.2152    0.9618 H   0  0  0  0  0  0  0  0  0  0  0  0
    3.5468   -1.3105    3.4248 H   0  0  0  0  0  0  0  0  0  0  0  0
    2.6796   -2.8572    3.2697 H   0  0  0  0  0  0  0  0  0  0  0  0
    4.6830   -3.8752    2.2212 H   0  0  0  0  0  0  0  0  0  0  0  0
    5.5501   -2.3285    2.3764 H   0  0  0  0  0  0  0  0  0  0  0  0
    5.2794   -2.4238    4.8394 H   0  0  0  0  0  0  0  0  0  0  0  0
    4.4123   -3.9705    4.6842 H   0  0  0  0  0  0  0  0  0  0  0  0
    6.4156   -4.9884    3.6358 H   0  0  0  0  0  0  0  0  0  0  0  0
    7.2827   -3.4417    3.7910 H   0  0  0  0  0  0  0  0  0  0  0  0
    7.0120   -3.5371    6.2540 H   0  0  0  0  0  0  0  0  0  0  0  0
    6.1449   -5.0838    6.0988 H   0  0  0  0  0  0  0  0  0  0  0  0
    8.1482   -6.1017    5.0504 H   0  0  0  0  0  0  0  0  0  0  0  0
    9.0153   -4.5550    5.2056 H   0  0  0  0  0  0  0  0  0  0  0  0
    8.7446   -4.6504    7.6685 H   0  0  0  0  0  0  0  0  0  0  0  0
    7.8775   -6.1971    7.5134 H   0  0  0  0  0  0  0  0  0  0  0  0
   10.2635   -6.5672    8.0781 H   0  0  0  0  0  0  0  0  0  0  0  0
    9.8808   -7.2150    6.4650 H   0  0  0  0  0  0  0  0  0  0  0  0
   10.7480   -5.6683    6.6201 H   0  0  0  0  0  0  0  0  0  0  0  0
  1  2  2  0  0  0  0
  1 15  1  0  0  0  0
  1 16  1  0  0  0  0
  2  3  1  0  0  0  0
  2  4  1  0  0  0  0
  3 17  1  0  0  0  0
  3 18  1  0  0  0  0
  3 19  1  0  0  0  0
  4  5  1  0  0  0  0
  4 20  1  0  0  0  0
  4 21  1  0  0  0  0
  5  6  1  0  0  0  0
  5 22  1  0  0  0  0
  5 23  1  0  0  0  0
  6  7  1  0  0  0  0
  6 24  1  0  0  0  0
  6 25  1  0  0  0  0
  7  8  1  0  0  0  0
  7 26  1  0  0  0  0
  7 27  1  0  0  0  0
  8  9  1  0  0  0  0
  8 28  1  0  0  0  0
  8 29  1  0  0  0  0
  9 10  1  0  0  0  0
  9 30  1  0  0  0  0
  9 31  1  0  0  0  0
 10 11  1  0  0  0  0
 10 32  1  0  0  0  0
 10 33  1  0  0  0  0
 11 12  1  0  0  0  0
 11 34  1  0  0  0  0
 11 35  1  0  0  0  0
 12 13  1  0  0  0  0
 12 36  1  0  0  0  0
 12 37  1  0  0  0  0
 13 14  1  0  0  0  0
 13 38  1  0  0  0  0
 13 39  1  0  0  0  0
 14 40  1  0  0  0  0
 14 41  1  0  0  0  0
 14 42  1  0  0  0  0
M  END
$$$$
ZINC000002528345
 OpenBabel08101817233D

 42 41  0  0  0  0  0  0  0  0999 V2000
   -0.0157    1.3058    0.0092 C   0  0  0  0  0  0  0  0  0  0  0  0
    0.0021   -0.0041    0.0020 C   0  0  0  0  0  0  0  0  0  0  0  0
   -1.2926   -0.7753    0.0102 C   0  0  0  0  0  0  0  0  0  0  0  0
   -1.6802   -1.1365   -1.4251 C   0  0  0  0  0  0  0  0  0  0  0  0
   -2.9946   -1.9195   -1.4168 C   0  0  0  0  0  0  0  0  0  0  0  0
   -3.3822   -2.2808   -2.8521 C   0  0  0  0  0  0  0  0  0  0  0  0
    1.3172   -0.7397   -0.0145 C   0  0  0  0  0  0  0  0  0  0  0  0
    1.7146   -1.1061    1.4168 C   0  0  0  0  0  0  0  0  0  0  0  0
    3.0498   -1.8530    1.4001 C   0  0  0  0  0  0  0  0  0  0  0  0
    3.4473   -2.2194    2.8314 C   0  0  0  0  0  0  0  0  0  0  0  0
    4.7825   -2.9663    2.8147 C   0  0  0  0  0  0  0  0  0  0  0  0
    5.1799   -3.3327    4.2460 C   0  0  0  0  0  0  0  0  0  0  0  0
    6.5151   -4.0796    4.2292 C   0  0  0  0  0  0  0  0  0  0  0  0
    6.9125   -4.4460    5.6606 C   0  0  0  0  0  0  0  0  0  0  0  0
    0.9122    1.8585    0.0033 H   0  0  0  0  0  0  0  0  0  0  0  0
   -0.9582    1.8330    0.0166 H   0  0  0  0  0  0  0  0  0  0  0  0
   -1.1684   -1.6876    0.5936 H   0  0  0  0  0  0  0  0  0  0  0  0
   -2.0772   -0.1633    0.4553 H   0  0  0  0  0  0  0  0  0  0  0  0
   -1.8044   -0.2242   -2.0085 H   0  0  0  0  0  0  0  0  0  0  0  0
   -0.8956   -1.7484   -1.8702 H   0  0  0  0  0  0  0  0  0  0  0  0
   -2.8704   -2.8318   -0.8334 H   0  0  0  0  0  0  0  0  0  0  0  0
   -3.7792   -1.3076   -0.9716 H   0  0  0  0  0  0  0  0  0  0  0  0
   -2.5976   -2.8927   -3.2972 H   0  0  0  0  0  0  0  0  0  0  0  0
   -4.3186   -2.8386   -2.8461 H   0  0  0  0  0  0  0  0  0  0  0  0
   -3.5064   -1.3684   -3.4355 H   0  0  0  0  0  0  0  0  0  0  0  0
    1.2177   -1.6486   -0.6079 H   0  0  0  0  0  0  0  0  0  0  0  0
    2.0848   -0.1019   -0.4527 H   0  0  0  0  0  0  0  0  0  0  0  0
    1.8141   -0.1972    2.0103 H   0  0  0  0  0  0  0  0  0  0  0  0
    0.9470   -1.7439    1.8551 H   0  0  0  0  0  0  0  0  0  0  0  0
    2.9503   -2.7619    0.8067 H   0  0  0  0  0  0  0  0  0  0  0  0
    3.8175   -1.2152    0.9618 H   0  0  0  0  0  0  0  0  0  0  0  0
    3.5468   -1.3105    3.4248 H   0  0  0  0  0  0  0  0  0  0  0  0
    2.6796   -2.8572    3.2697 H   0  0  0  0  0  0  0  0  0  0  0  0
    4.6830   -3.8752    2.2212 H   0  0  0  0  0  0  0  0  0  0  0  0
    5.5501   -2.3285    2.3764 H   0  0  0  0  0  0  0  0  0  0  0  0
    5.2794   -2.4238    4.8394 H   0  0  0  0  0  0  0  0  0  0  0  0
    4.4123   -3.9705    4.6842 H   0  0  0  0  0  0  0  0  0  0  0  0
    6.4156   -4.9884    3.6358 H   0  0  0  0  0  0  0  0  0  0  0  0
    7.2827   -3.4417    3.7910 H   0  0  0  0  0  0  0  0  0  0  0  0
    7.8637   -4.9781    5.6486 H   0  0  0  0  0  0  0  0  0  0  0  0
    7.0120   -3.5371    6.2540 H   0  0  0  0  0  0  0  0  0  0  0  0
    6.1449   -5.0838    6.0988 H   0  0  0  0  0  0  0  0  0  0  0  0
  1  2  2  0  0  0  0
  1 15  1  0  0  0  0
  1 16  1  0  0  0  0
  2  3  1  0  0  0  0
  2  7  1  0  0  0  0
  3  4  1  0  0  0  0
  3 17  1  0  0  0  0
  3 18  1  0  0  0  0
  4  5  1  0  0  0  0
  4 19  1  0  0  0  0
  4 20  1  0  0  0  0
  5  6  1  0  0  0  0
  5 21  1  0  0  0  0
  5 22  1  0  0  0  0
  6 23  1  0  0  0  0
  6 24  1  0  0  0  0
  6 25  1  0  0  0  0
  7  8  1  0  0  0  0
  7 26  1  0  0  0  0
  7 27  1  0  0  0  0
  8  9  1  0  0  0  0
  8 28  1  0  0  0  0
  8 29  1  0  0  0  0
  9 10  1  0  0  0  0
  9 30  1  0  0  0  0
  9 31  1  0  0  0  0
 10 11  1  0  0  0  0
 10 32  1  0  0  0  0
 10 33  1  0  0  0  0
 11 12  1  0  0  0  0
 11 34  1  0  0  0  0
 11 35  1  0  0  0  0
 12 13  1  0  0  0  0
 12 36  1  0  0  0  0
 12 37  1  0  0  0  0
 13 14  1  0  0  0  0
 13 38  1  0  0  0  0
 13 39  1  0  0  0  0
 14 40  1  0  0  0  0
 14 41  1  0  0  0  0
 14 42  1  0  0  0  0
M  END
$$$$
ZINC000002528344
 OpenBabel08101817233D

 42 41  0  0  0  0  0  0  0  0999 V2000
   -0.0157    1.3058    0.0092 C   0  0  0  0  0  0  0  0  0  0  0  0
    0.0021   -0.0041    0.0020 C   0  0  0  0  0  0  0  0  0  0  0  0
   -1.2926   -0.7753    0.0102 C   0  0  0  0  0  0  0  0  0  0  0  0
   -1.6802   -1.1365   -1.4251 C   0  0  0  0  0  0  0  0  0  0  0  0
   -2.9946   -1.9195   -1.4168 C   0  0  0  0  0  0  0  0  0  0  0  0
   -3.3822   -2.2808   -2.8521 C   0  0  0  0  0  0  0  0  0  0  0  0
   -4.6966   -3.0637   -2.8437 C   0  0  0  0  0  0  0  0  0  0  0  0
   -5.0842   -3.4250   -4.2791 C   0  0  0  0  0  0  0  0  0  0  0  0
    1.3172   -0.7397   -0.0145 C   0  0  0  0  0  0  0  0  0  0  0  0
    1.7146   -1.1061    1.4168 C   0  0  0  0  0  0  0  0  0  0  0  0
    3.0498   -1.8530    1.4001 C   0  0  0  0  0  0  0  0  0  0  0  0
    3.4473   -2.2194    2.8314 C   0  0  0  0  0  0  0  0  0  0  0  0
    4.7825   -2.9663    2.8147 C   0  0  0  0  0  0  0  0  0  0  0  0
    5.1799   -3.3327    4.2460 C   0  0  0  0  0  0  0  0  0  0  0  0
    0.9122    1.8585    0.0033 H   0  0  0  0  0  0  0  0  0  0  0  0
   -0.9582    1.8330    0.0166 H   0  0  0  0  0  0  0  0  0  0  0  0
   -1.1684   -1.6876    0.5936 H   0  0  0  0  0  0  0  0  0  0  0  0
   -2.0772   -0.1633    0.4553 H   0  0  0  0  0  0  0  0  0  0  0  0
   -1.8044   -0.2242   -2.0085 H   0  0  0  0  0  0  0  0  0  0  0  0
   -0.8956   -1.7484   -1.8702 H   0  0  0  0  0  0  0  0  0  0  0  0
   -2.8704   -2.8318   -0.8334 H   0  0  0  0  0  0  0  0  0  0  0  0
   -3.7792   -1.3076   -0.9716 H   0  0  0  0  0  0  0  0  0  0  0  0
   -3.5064   -1.3684   -3.4355 H   0  0  0  0  0  0  0  0  0  0  0  0
   -2.5976   -2.8927   -3.2972 H   0  0  0  0  0  0  0  0  0  0  0  0
   -4.5724   -3.9760   -2.2603 H   0  0  0  0  0  0  0  0  0  0  0  0
   -5.4812   -2.4518   -2.3986 H   0  0  0  0  0  0  0  0  0  0  0  0
   -4.2996   -4.0369   -4.7242 H   0  0  0  0  0  0  0  0  0  0  0  0
   -6.0206   -3.9828   -4.2731 H   0  0  0  0  0  0  0  0  0  0  0  0
   -5.2084   -2.5127   -4.8625 H   0  0  0  0  0  0  0  0  0  0  0  0
    1.2177   -1.6486   -0.6079 H   0  0  0  0  0  0  0  0  0  0  0  0
    2.0848   -0.1019   -0.4527 H   0  0  0  0  0  0  0  0  0  0  0  0
    1.8141   -0.1972    2.0103 H   0  0  0  0  0  0  0  0  0  0  0  0
    0.9470   -1.7439    1.8551 H   0  0  0  0  0  0  0  0  0  0  0  0
    2.9503   -2.7619    0.8067 H   0  0  0  0  0  0  0  0  0  0  0  0
    3.8175   -1.2152    0.9618 H   0  0  0  0  0  0  0  0  0  0  0  0
    3.5468   -1.3105    3.4248 H   0  0  0  0  0  0  0  0  0  0  0  0
    2.6796   -2.8572    3.2697 H   0  0  0  0  0  0  0  0  0  0  0  0
    4.6830   -3.8752    2.2212 H   0  0  0  0  0  0  0  0  0  0  0  0
    5.5501   -2.3285    2.3764 H   0  0  0  0  0  0  0  0  0  0  0  0
    5.2794   -2.4238    4.8394 H   0  0  0  0  0  0  0  0  0  0  0  0
    4.4123   -3.9705    4.6842 H   0  0  0  0  0  0  0  0  0  0  0  0
    6.1311   -3.8648    4.2340 H   0  0  0  0  0  0  0  0  0  0  0  0
  1  2  2  0  0  0  0
  1 15  1  0  0  0  0
  1 16  1  0  0  0  0
  2  3  1  0  0  0  0
  2  9  1  0  0  0  0
  3  4  1  0  0  0  0
  3 17  1  0  0  0  0
  3 18  1  0  0  0  0
  4  5  1  0  0  0  0
  4 19  1  0  0  0  0
  4 20  1  0  0  0  0
  5  6  1  0  0  0  0
  5 21  1  0  0  0  0
  5 22  1  0  0  0  0
  6  7  1  0  0  0  0
  6 23  1  0  0  0  0
  6 24  1  0  0  0  0
  7  8  1  0  0  0  0
  7 25  1  0  0  0  0
  7 26  1  0  0  0  0
  8 27  1  0  0  0  0
  8 28  1  0  0  0  0
  8 29  1  0  0  0  0
  9 10  1  0  0  0  0
  9 30  1  0  0  0  0
  9 31  1  0  0  0  0
 10 11  1  0  0  0  0
 10 32  1  0  0  0  0
 10 33  1  0  0  0  0
 11 12  1  0  0  0  0
 11 34  1  0  0  0  0
 11 35  1  0  0  0  0
 12 13  1  0  0  0  0
 12 36  1  0  0  0  0
 12 37  1  0  0  0  0
 13 14  1  0  0  0  0
 13 38  1  0  0  0  0
 13 39  1  0  0  0  0
 14 40  1  0  0  0  0
 14 41  1  0  0  0  0
 14 42  1  0  0  0  0
M  END
$$$$
ZINC000002528314
 OpenBabel08101817233D

 41 40  0  0  0  0  0  0  0  0999 V2000
   -0.0187    1.5258    0.0104 C   0  0  0  0  0  0  0  0  0  0  0  0
    0.0021   -0.0041    0.0020 C   0  0  0  0  0  0  0  0  0  0  0  0
   -1.4333   -0.5336    0.0129 C   0  0  0  0  0  0  0  0  0  0  0  0
   -1.4126   -2.0635    0.0045 C   0  0  0  0  0  0  0  0  0  0  0  0
   -2.8479   -2.5931    0.0153 C   0  0  0  0  0  0  0  0  0  0  0  0
   -2.8272   -4.1229    0.0069 C   0  0  0  0  0  0  0  0  0  0  0  0
   -4.2626   -4.6525    0.0178 C   0  0  0  0  0  0  0  0  0  0  0  0
   -4.2418   -6.1823    0.0094 C   0  0  0  0  0  0  0  0  0  0  0  0
   -5.6772   -6.7119    0.0202 C   0  0  0  0  0  0  0  0  0  0  0  0
   -5.6565   -8.2417    0.0118 C   0  0  0  0  0  0  0  0  0  0  0  0
   -7.0918   -8.7713    0.0227 C   0  0  0  0  0  0  0  0  0  0  0  0
   -7.7938   -8.3689   -1.2759 C   0  0  0  0  0  0  0  0  0  0  0  0
   -7.0718  -10.2967    0.1400 C   0  0  0  0  0  0  0  0  0  0  0  0
    1.0039    1.9031    0.0027 H   0  0  0  0  0  0  0  0  0  0  0  0
   -0.5459    1.8868   -0.8726 H   0  0  0  0  0  0  0  0  0  0  0  0
   -0.5289    1.8773    0.9072 H   0  0  0  0  0  0  0  0  0  0  0  0
    0.5123   -0.3556   -0.8948 H   0  0  0  0  0  0  0  0  0  0  0  0
    0.5293   -0.3651    0.8851 H   0  0  0  0  0  0  0  0  0  0  0  0
   -1.9435   -0.1821    0.9097 H   0  0  0  0  0  0  0  0  0  0  0  0
   -1.9605   -0.1726   -0.8702 H   0  0  0  0  0  0  0  0  0  0  0  0
   -0.9024   -2.4150   -0.8923 H   0  0  0  0  0  0  0  0  0  0  0  0
   -0.8854   -2.4246    0.8875 H   0  0  0  0  0  0  0  0  0  0  0  0
   -3.3581   -2.2415    0.9121 H   0  0  0  0  0  0  0  0  0  0  0  0
   -3.3751   -2.2320   -0.8677 H   0  0  0  0  0  0  0  0  0  0  0  0
   -2.3170   -4.4744   -0.8899 H   0  0  0  0  0  0  0  0  0  0  0  0
   -2.3000   -4.4840    0.8900 H   0  0  0  0  0  0  0  0  0  0  0  0
   -4.7728   -4.3010    0.9146 H   0  0  0  0  0  0  0  0  0  0  0  0
   -4.7898   -4.2914   -0.8653 H   0  0  0  0  0  0  0  0  0  0  0  0
   -3.7316   -6.5338   -0.8874 H   0  0  0  0  0  0  0  0  0  0  0  0
   -3.7146   -6.5434    0.8924 H   0  0  0  0  0  0  0  0  0  0  0  0
   -6.1874   -6.3604    0.9170 H   0  0  0  0  0  0  0  0  0  0  0  0
   -6.2044   -6.3508   -0.8628 H   0  0  0  0  0  0  0  0  0  0  0  0
   -5.1463   -8.5933   -0.8850 H   0  0  0  0  0  0  0  0  0  0  0  0
   -5.1293   -8.6028    0.8949 H   0  0  0  0  0  0  0  0  0  0  0  0
   -7.6287   -8.3486    0.8719 H   0  0  0  0  0  0  0  0  0  0  0  0
   -7.8080   -7.2822   -1.3595 H   0  0  0  0  0  0  0  0  0  0  0  0
   -7.2569   -8.7916   -2.1252 H   0  0  0  0  0  0  0  0  0  0  0  0
   -8.8164   -8.7462   -1.2682 H   0  0  0  0  0  0  0  0  0  0  0  0
   -6.5717  -10.5834    1.0651 H   0  0  0  0  0  0  0  0  0  0  0  0
   -8.0944  -10.6740    0.1478 H   0  0  0  0  0  0  0  0  0  0  0  0
   -6.5350  -10.7194   -0.7092 H   0  0  0  0  0  0  0  0  0  0  0  0
  1  2  1  0  0  0  0
  1 14  1  0  0  0  0
  1 15  1  0  0  0  0
  1 16  1  0  0  0  0
  2  3  1  0  0  0  0
  2 17  1  0  0  0  0
  2 18  1  0  0  0  0
  3  4  1  0  0  0  0
  3 19  1  0  0  0  0
  3 20  1  0  0  0  0
  4  5  1  0  0  0  0
  4 21  1  0  0  0  0
  4 22  1  0  0  0  0
  5  6  1  0  0  0  0
  5 23  1  0  0  0  0
  5 24  1  0  0  0  0
  6  7  1  0  0  0  0
  6 25  1  0  0  0  0
  6 26  1  0  0  0  0
  7  8  1  0  0  0  0
  7 27  1  0  0  0  0
  7 28  1  0  0  0  0
  8  9  1  0  0  0  0
  8 29  1  0  0  0  0
  8 30  1  0  0  0  0
  9 10  1  0  0  0  0
  9 31  1  0  0  0  0
  9 32  1  0  0  0  0
 10 11  1  0  0  0  0
 10 33  1  0  0  0  0
 10 34  1  0  0  0  0
 11 12  1  0  0  0  0
 11 13  1  0  0  0  0
 11 35  1  0  0  0  0
 12 36  1  0  0  0  0
 12 37  1  0  0  0  0
 12 38  1  0  0  0  0
 13 39  1  0  0  0  0
 13 40  1  0  0  0  0
 13 41  1  0  0  0  0
M  END
$$$$
ZINC000002560572
 OpenBabel08101817233D

 44 43  0  0  0  0  0  0  0  0999 V2000
   -0.0187    1.5258    0.0104 C   0  0  0  0  0  0  0  0  0  0  0  0
    0.0021   -0.0041    0.0020 C   0  0  0  0  0  0  0  0  0  0  0  0
    0.7421   -0.5109    1.2415 C   0  0  0  0  0  0  0  0  0  0  0  0
    0.7628   -2.0407    1.2331 C   0  0  0  0  0  0  0  0  0  0  0  0
    1.5028   -2.5476    2.4727 C   0  0  0  0  0  0  0  0  0  0  0  0
    1.5236   -4.0774    2.4642 C   0  0  0  0  0  0  0  0  0  0  0  0
    2.2636   -4.5842    3.7038 C   0  0  0  0  0  0  0  0  0  0  0  0
    2.2843   -6.1141    3.6954 C   0  0  0  0  0  0  0  0  0  0  0  0
    3.0243   -6.6209    4.9349 C   0  0  0  0  0  0  0  0  0  0  0  0
    3.0450   -8.1508    4.9265 C   0  0  0  0  0  0  0  0  0  0  0  0
    3.7850   -8.6576    6.1660 C   0  0  0  0  0  0  0  0  0  0  0  0
    3.8058  -10.1874    6.1576 C   0  0  0  0  0  0  0  0  0  0  0  0
    4.6512  -10.6925    7.3285 C   0  0  0  0  0  0  0  0  0  0  0  0
    2.3771  -10.7176    6.2941 C   0  0  0  0  0  0  0  0  0  0  0  0
    1.0039    1.9031    0.0027 H   0  0  0  0  0  0  0  0  0  0  0  0
   -0.5459    1.8868   -0.8726 H   0  0  0  0  0  0  0  0  0  0  0  0
   -0.5289    1.8773    0.9072 H   0  0  0  0  0  0  0  0  0  0  0  0
   -1.0205   -0.3814    0.0098 H   0  0  0  0  0  0  0  0  0  0  0  0
    0.5123   -0.3556   -0.8948 H   0  0  0  0  0  0  0  0  0  0  0  0
    1.7647   -0.1336    1.2338 H   0  0  0  0  0  0  0  0  0  0  0  0
    0.2319   -0.1594    2.1383 H   0  0  0  0  0  0  0  0  0  0  0  0
   -0.2598   -2.4180    1.2409 H   0  0  0  0  0  0  0  0  0  0  0  0
    1.2730   -2.3923    0.3363 H   0  0  0  0  0  0  0  0  0  0  0  0
    2.5254   -2.1703    2.4649 H   0  0  0  0  0  0  0  0  0  0  0  0
    0.9926   -2.1961    3.3695 H   0  0  0  0  0  0  0  0  0  0  0  0
    0.5010   -4.4547    2.4720 H   0  0  0  0  0  0  0  0  0  0  0  0
    2.0337   -4.4289    1.5675 H   0  0  0  0  0  0  0  0  0  0  0  0
    3.2861   -4.2070    3.6960 H   0  0  0  0  0  0  0  0  0  0  0  0
    1.7534   -4.2327    4.6006 H   0  0  0  0  0  0  0  0  0  0  0  0
    1.2617   -6.4914    3.7031 H   0  0  0  0  0  0  0  0  0  0  0  0
    2.7945   -6.4656    2.7986 H   0  0  0  0  0  0  0  0  0  0  0  0
    4.0469   -6.2436    4.9271 H   0  0  0  0  0  0  0  0  0  0  0  0
    2.5141   -6.2694    5.8317 H   0  0  0  0  0  0  0  0  0  0  0  0
    2.0224   -8.5280    4.9342 H   0  0  0  0  0  0  0  0  0  0  0  0
    3.5552   -8.5023    4.0297 H   0  0  0  0  0  0  0  0  0  0  0  0
    4.8076   -8.2803    6.1583 H   0  0  0  0  0  0  0  0  0  0  0  0
    3.2748   -8.3061    7.0628 H   0  0  0  0  0  0  0  0  0  0  0  0
    4.2361  -10.5398    5.2201 H   0  0  0  0  0  0  0  0  0  0  0  0
    4.2210  -10.3401    8.2659 H   0  0  0  0  0  0  0  0  0  0  0  0
    4.6660  -11.7823    7.3225 H   0  0  0  0  0  0  0  0  0  0  0  0
    5.6691  -10.3147    7.2312 H   0  0  0  0  0  0  0  0  0  0  0  0
    1.9468  -10.3652    7.2315 H   0  0  0  0  0  0  0  0  0  0  0  0
    1.7748  -10.3578    5.4599 H   0  0  0  0  0  0  0  0  0  0  0  0
    2.3919  -11.8075    6.2881 H   0  0  0  0  0  0  0  0  0  0  0  0
  1  2  1  0  0  0  0
  1 15  1  0  0  0  0
  1 16  1  0  0  0  0
  1 17  1  0  0  0  0
  2  3  1  0  0  0  0
  2 18  1  0  0  0  0
  2 19  1  0  0  0  0
  3  4  1  0  0  0  0
  3 20  1  0  0  0  0
  3 21  1  0  0  0  0
  4  5  1  0  0  0  0
  4 22  1  0  0  0  0
  4 23  1  0  0  0  0
  5  6  1  0  0  0  0
  5 24  1  0  0  0  0
  5 25  1  0  0  0  0
  6  7  1  0  0  0  0
  6 26  1  0  0  0  0
  6 27  1  0  0  0  0
  7  8  1  0  0  0  0
  7 28  1  0  0  0  0
  7 29  1  0  0  0  0
  8  9  1  0  0  0  0
  8 30  1  0  0  0  0
  8 31  1  0  0  0  0
  9 10  1  0  0  0  0
  9 32  1  0  0  0  0
  9 33  1  0  0  0  0
 10 11  1  0  0  0  0
 10 34  1  0  0  0  0
 10 35  1  0  0  0  0
 11 12  1  0  0  0  0
 11 36  1  0  0  0  0
 11 37  1  0  0  0  0
 12 13  1  0  0  0  0
 12 14  1  0  0  0  0
 12 38  1  0  0  0  0
 13 39  1  0  0  0  0
 13 40  1  0  0  0  0
 13 41  1  0  0  0  0
 14 42  1  0  0  0  0
 14 43  1  0  0  0  0
 14 44  1  0  0  0  0
M  END
$$$$
ZINC000100014035
 OpenBabel08101817233D

 41 40  0  0  1  0  0  0  0  0999 V2000
   -0.0187    1.5258    0.0104 C   0  0  0  0  0  0  0  0  0  0  0  0
    0.0021   -0.0041    0.0020 C   0  0  0  0  0  0  0  0  0  0  0  0
    0.7182   -0.4975   -1.2568 C   0  0  0  0  0  0  0  0  0  0  0  0
    0.7390   -2.0273   -1.2652 C   0  0  0  0  0  0  0  0  0  0  0  0
    1.4551   -2.5207   -2.5240 C   0  0  0  0  0  0  0  0  0  0  0  0
    1.4758   -4.0506   -2.5324 C   0  0  0  0  0  0  0  0  0  0  0  0
    2.1920   -4.5440   -3.7912 C   0  0  0  0  0  0  0  0  0  0  0  0
    2.2127   -6.0738   -3.7996 C   0  0  1  0  0  0  0  0  0  0  0  0
    2.6608   -6.4362   -2.8744 H   0  0  0  0  0  0  0  0  0  0  0  0
    0.7816   -6.6027   -3.9145 C   0  0  0  0  0  0  0  0  0  0  0  0
    3.0356   -6.5662   -4.9918 C   0  0  0  0  0  0  0  0  0  0  0  0
    4.4667   -6.0373   -4.8769 C   0  0  0  0  0  0  0  0  0  0  0  0
    3.0564   -8.0960   -5.0002 C   0  0  0  0  0  0  0  0  0  0  0  0
    2.4067   -6.0575   -6.2905 C   0  0  0  0  0  0  0  0  0  0  0  0
    1.0039    1.9031    0.0027 H   0  0  0  0  0  0  0  0  0  0  0  0
   -0.5459    1.8868   -0.8726 H   0  0  0  0  0  0  0  0  0  0  0  0
   -0.5289    1.8773    0.9072 H   0  0  0  0  0  0  0  0  0  0  0  0
    0.5293   -0.3651    0.8851 H   0  0  0  0  0  0  0  0  0  0  0  0
   -1.0205   -0.3814    0.0098 H   0  0  0  0  0  0  0  0  0  0  0  0
    0.1910   -0.1364   -2.1398 H   0  0  0  0  0  0  0  0  0  0  0  0
    1.7408   -0.1202   -1.2645 H   0  0  0  0  0  0  0  0  0  0  0  0
    1.2661   -2.3884   -0.3821 H   0  0  0  0  0  0  0  0  0  0  0  0
   -0.2836   -2.4046   -1.2575 H   0  0  0  0  0  0  0  0  0  0  0  0
    0.9279   -2.1597   -3.4071 H   0  0  0  0  0  0  0  0  0  0  0  0
    2.4777   -2.1435   -2.5317 H   0  0  0  0  0  0  0  0  0  0  0  0
    2.0030   -4.4117   -1.6494 H   0  0  0  0  0  0  0  0  0  0  0  0
    0.4533   -4.4279   -2.5247 H   0  0  0  0  0  0  0  0  0  0  0  0
    1.6648   -4.1829   -4.6743 H   0  0  0  0  0  0  0  0  0  0  0  0
    3.2146   -4.1667   -3.7990 H   0  0  0  0  0  0  0  0  0  0  0  0
    0.7964   -7.6925   -3.9205 H   0  0  0  0  0  0  0  0  0  0  0  0
    0.1954   -6.2519   -3.0652 H   0  0  0  0  0  0  0  0  0  0  0  0
    0.3336   -6.2403   -4.8397 H   0  0  0  0  0  0  0  0  0  0  0  0
    4.9148   -6.3997   -3.9517 H   0  0  0  0  0  0  0  0  0  0  0  0
    5.0530   -6.3881   -5.7263 H   0  0  0  0  0  0  0  0  0  0  0  0
    4.4520   -4.9475   -4.8709 H   0  0  0  0  0  0  0  0  0  0  0  0
    2.0368   -8.4728   -5.0821 H   0  0  0  0  0  0  0  0  0  0  0  0
    3.6426   -8.4468   -5.8496 H   0  0  0  0  0  0  0  0  0  0  0  0
    3.5045   -8.4584   -4.0750 H   0  0  0  0  0  0  0  0  0  0  0  0
    2.3919   -4.9676   -6.2845 H   0  0  0  0  0  0  0  0  0  0  0  0
    2.9929   -6.4083   -7.1399 H   0  0  0  0  0  0  0  0  0  0  0  0
    1.3872   -6.4343   -6.3724 H   0  0  0  0  0  0  0  0  0  0  0  0
  1  2  1  0  0  0  0
  1 15  1  0  0  0  0
  1 16  1  0  0  0  0
  1 17  1  0  0  0  0
  2  3  1  0  0  0  0
  2 18  1  0  0  0  0
  2 19  1  0  0  0  0
  3  4  1  0  0  0  0
  3 20  1  0  0  0  0
  3 21  1  0  0  0  0
  4  5  1  0  0  0  0
  4 22  1  0  0  0  0
  4 23  1  0  0  0  0
  5  6  1  0  0  0  0
  5 24  1  0  0  0  0
  5 25  1  0  0  0  0
  6  7  1  0  0  0  0
  6 26  1  0  0  0  0
  6 27  1  0  0  0  0
  7  8  1  0  0  0  0
  7 28  1  0  0  0  0
  7 29  1  0  0  0  0
  8  9  1  1  0  0  0
  8 10  1  0  0  0  0
  8 11  1  0  0  0  0
 10 30  1  0  0  0  0
 10 31  1  0  0  0  0
 10 32  1  0  0  0  0
 11 12  1  0  0  0  0
 11 13  1  0  0  0  0
 11 14  1  0  0  0  0
 12 33  1  0  0  0  0
 12 34  1  0  0  0  0
 12 35  1  0  0  0  0
 13 36  1  0  0  0  0
 13 37  1  0  0  0  0
 13 38  1  0  0  0  0
 14 39  1  0  0  0  0
 14 40  1  0  0  0  0
 14 41  1  0  0  0  0
M  END
$$$$
ZINC000002510819
 OpenBabel08101817233D

 41 40  0  0  1  0  0  0  0  0999 V2000
   -0.0187    1.5258    0.0104 C   0  0  0  0  0  0  0  0  0  0  0  0
    0.0021   -0.0041    0.0020 C   0  0  0  0  0  0  0  0  0  0  0  0
    0.7182   -0.4975   -1.2568 C   0  0  0  0  0  0  0  0  0  0  0  0
    0.7390   -2.0273   -1.2652 C   0  0  0  0  0  0  0  0  0  0  0  0
    1.4551   -2.5207   -2.5240 C   0  0  0  0  0  0  0  0  0  0  0  0
    1.4758   -4.0506   -2.5324 C   0  0  0  0  0  0  0  0  0  0  0  0
    2.1920   -4.5440   -3.7912 C   0  0  0  0  0  0  0  0  0  0  0  0
    2.2127   -6.0738   -3.7996 C   0  0  2  0  0  0  0  0  0  0  0  0
    1.1949   -6.4515   -3.7024 H   0  0  0  0  0  0  0  0  0  0  0  0
    3.0582   -6.5789   -2.6287 C   0  0  0  0  0  0  0  0  0  0  0  0
    2.8167   -6.5685   -5.1155 C   0  0  0  0  0  0  0  0  0  0  0  0
    4.2454   -6.0383   -5.2520 C   0  0  0  0  0  0  0  0  0  0  0  0
    2.8375   -8.0983   -5.1239 C   0  0  0  0  0  0  0  0  0  0  0  0
    1.9712   -6.0634   -6.2864 C   0  0  0  0  0  0  0  0  0  0  0  0
    1.0039    1.9031    0.0027 H   0  0  0  0  0  0  0  0  0  0  0  0
   -0.5459    1.8868   -0.8726 H   0  0  0  0  0  0  0  0  0  0  0  0
   -0.5289    1.8773    0.9072 H   0  0  0  0  0  0  0  0  0  0  0  0
    0.5293   -0.3651    0.8851 H   0  0  0  0  0  0  0  0  0  0  0  0
   -1.0205   -0.3814    0.0098 H   0  0  0  0  0  0  0  0  0  0  0  0
    0.1910   -0.1364   -2.1398 H   0  0  0  0  0  0  0  0  0  0  0  0
    1.7408   -0.1202   -1.2645 H   0  0  0  0  0  0  0  0  0  0  0  0
    1.2661   -2.3884   -0.3821 H   0  0  0  0  0  0  0  0  0  0  0  0
   -0.2836   -2.4046   -1.2575 H   0  0  0  0  0  0  0  0  0  0  0  0
    0.9279   -2.1597   -3.4071 H   0  0  0  0  0  0  0  0  0  0  0  0
    2.4777   -2.1435   -2.5317 H   0  0  0  0  0  0  0  0  0  0  0  0
    2.0030   -4.4117   -1.6494 H   0  0  0  0  0  0  0  0  0  0  0  0
    0.4533   -4.4279   -2.5247 H   0  0  0  0  0  0  0  0  0  0  0  0
    1.6648   -4.1829   -4.6743 H   0  0  0  0  0  0  0  0  0  0  0  0
    3.2146   -4.1667   -3.7990 H   0  0  0  0  0  0  0  0  0  0  0  0
    2.6279   -6.2265   -1.6913 H   0  0  0  0  0  0  0  0  0  0  0  0
    3.0730   -7.6687   -2.6347 H   0  0  0  0  0  0  0  0  0  0  0  0
    4.0760   -6.2011   -2.7260 H   0  0  0  0  0  0  0  0  0  0  0  0
    4.8477   -6.3981   -4.4178 H   0  0  0  0  0  0  0  0  0  0  0  0
    4.6757   -6.3907   -6.1894 H   0  0  0  0  0  0  0  0  0  0  0  0
    4.2306   -4.9484   -5.2460 H   0  0  0  0  0  0  0  0  0  0  0  0
    1.8196   -8.4760   -5.0266 H   0  0  0  0  0  0  0  0  0  0  0  0
    3.2677   -8.4507   -6.0613 H   0  0  0  0  0  0  0  0  0  0  0  0
    3.4398   -8.4581   -4.2897 H   0  0  0  0  0  0  0  0  0  0  0  0
    1.9565   -4.9735   -6.2804 H   0  0  0  0  0  0  0  0  0  0  0  0
    2.4015   -6.4158   -7.2238 H   0  0  0  0  0  0  0  0  0  0  0  0
    0.9534   -6.4411   -6.1891 H   0  0  0  0  0  0  0  0  0  0  0  0
  1  2  1  0  0  0  0
  1 15  1  0  0  0  0
  1 16  1  0  0  0  0
  1 17  1  0  0  0  0
  2  3  1  0  0  0  0
  2 18  1  0  0  0  0
  2 19  1  0  0  0  0
  3  4  1  0  0  0  0
  3 20  1  0  0  0  0
  3 21  1  0  0  0  0
  4  5  1  0  0  0  0
  4 22  1  0  0  0  0
  4 23  1  0  0  0  0
  5  6  1  0  0  0  0
  5 24  1  0  0  0  0
  5 25  1  0  0  0  0
  6  7  1  0  0  0  0
  6 26  1  0  0  0  0
  6 27  1  0  0  0  0
  7  8  1  0  0  0  0
  7 28  1  0  0  0  0
  7 29  1  0  0  0  0
  8  9  1  1  0  0  0
  8 10  1  0  0  0  0
  8 11  1  0  0  0  0
 10 30  1  0  0  0  0
 10 31  1  0  0  0  0
 10 32  1  0  0  0  0
 11 12  1  0  0  0  0
 11 13  1  0  0  0  0
 11 14  1  0  0  0  0
 12 33  1  0  0  0  0
 12 34  1  0  0  0  0
 12 35  1  0  0  0  0
 13 36  1  0  0  0  0
 13 37  1  0  0  0  0
 13 38  1  0  0  0  0
 14 39  1  0  0  0  0
 14 40  1  0  0  0  0
 14 41  1  0  0  0  0
M  END
$$$$
